version 2
run General-0-20240407-20:59:03-3720
attr configname General
attr datetime 20240407-20:59:03
attr experiment General
attr inifile omnetpp.ini
attr iterationvars ""
attr iterationvarsf ""
attr measurement ""
attr network Scenario
attr processid 3720
attr repetition 0
attr replication #0
attr resultdir results
attr runnumber 0
attr seedset 0
param *.node[*].numApps 1
param *.node[*].app[0].typename "\"vanetquevedo.veins_inet.VeinsInetSampleApplication\""
param *.node[*].app[0].interface "\"wlan0\""
param *.node[*].wlan[0].opMode "\"p\""
param *.node[*].wlan[0].radio.typename "\"Ieee80211DimensionalRadio\""
param *.node[*].wlan[0].radio.bandName "\"5.9 GHz\""
param *.node[*].wlan[0].radio.channelNumber 3
param *.node[*].wlan[0].radio.transmitter.power 20mW
param *.node[*].wlan[0].radio.bandwidth "10 MHz"
param *.node[*].wlan[*].radio.antenna.mobility.typename "\"AttachedMobility\""
param *.node[*].wlan[*].radio.antenna.mobility.mobilityModule "\"^.^.^.^.mobility\""
param *.node[*].wlan[*].radio.antenna.mobility.offsetX -2.5m
param *.node[*].wlan[*].radio.antenna.mobility.offsetZ 1.5m
param *.node[*].wlan[*].radio.antenna.mobility.constraintAreaMinX 0m
param *.node[*].wlan[*].radio.antenna.mobility.constraintAreaMaxX 0m
param *.node[*].wlan[*].radio.antenna.mobility.constraintAreaMinY 0m
param *.node[*].wlan[*].radio.antenna.mobility.constraintAreaMaxY 0m
param *.node[*].wlan[*].radio.antenna.mobility.constraintAreaMinZ 0m
param *.node[*].wlan[*].radio.antenna.mobility.constraintAreaMaxZ 0m
param *.node[*].ipv4.routingTableModule "\"inet.routing.dymo.DymoRouting\""
param *.node[*].ipv4.configurator.typename "\"HostAutoConfigurator\""
param *.node[*].ipv4.configurator.interfaces "\"wlan0\""
param *.node[*].ipv4.configurator.mcastGroups "\"224.0.0.1\""
param *.node[*].mobility.typename "\"VeinsInetMobility\""
param *.manager.updateInterval 0.1s
param *.manager.host "\"localhost\""
param *.manager.port 9999
param *.manager.autoShutdown true
param *.manager.launchConfig "xmldoc(\"centerquevedo.launchd.xml\")"
param *.manager.moduleType "\"vanetquevedo.veins_inet.VeinsInetCar\""

vector 0 Scenario.node[0].wlan[0].radio radioMode:vector ETV
attr interpolationmode sample-hold
attr source radioModeChanged
attr title "Radio mode, vector"
vector 1 Scenario.node[0].wlan[0].radio radioChannel:vector ETV
attr interpolationmode sample-hold
attr source radioChannelChanged
attr title "Radio channel, vector"
vector 2 Scenario.node[0].wlan[0].radio receptionState:vector ETV
attr interpolationmode sample-hold
attr source receptionStateChanged
attr title "Radio reception state, vector"
vector 3 Scenario.node[0].wlan[0].mac.dcf.recoveryProcedure contentionWindowChanged:vector ETV
attr interpolationmode sample-hold
attr title "contention window, vector"
vector 4 Scenario.node[1].wlan[0].radio radioMode:vector ETV
attr interpolationmode sample-hold
attr source radioModeChanged
attr title "Radio mode, vector"
vector 5 Scenario.node[1].wlan[0].radio radioChannel:vector ETV
attr interpolationmode sample-hold
attr source radioChannelChanged
attr title "Radio channel, vector"
vector 6 Scenario.node[1].wlan[0].radio receptionState:vector ETV
attr interpolationmode sample-hold
attr source receptionStateChanged
attr title "Radio reception state, vector"
vector 7 Scenario.node[1].wlan[0].mac.dcf.recoveryProcedure contentionWindowChanged:vector ETV
attr interpolationmode sample-hold
attr title "contention window, vector"
vector 8 Scenario.node[2].wlan[0].radio radioMode:vector ETV
attr interpolationmode sample-hold
attr source radioModeChanged
attr title "Radio mode, vector"
vector 9 Scenario.node[2].wlan[0].radio radioChannel:vector ETV
attr interpolationmode sample-hold
attr source radioChannelChanged
attr title "Radio channel, vector"
vector 10 Scenario.node[2].wlan[0].radio receptionState:vector ETV
attr interpolationmode sample-hold
attr source receptionStateChanged
attr title "Radio reception state, vector"
vector 11 Scenario.node[2].wlan[0].mac.dcf.recoveryProcedure contentionWindowChanged:vector ETV
attr interpolationmode sample-hold
attr title "contention window, vector"
vector 12 Scenario.node[3].wlan[0].radio radioMode:vector ETV
attr interpolationmode sample-hold
attr source radioModeChanged
attr title "Radio mode, vector"
vector 13 Scenario.node[3].wlan[0].radio radioChannel:vector ETV
attr interpolationmode sample-hold
attr source radioChannelChanged
attr title "Radio channel, vector"
vector 14 Scenario.node[3].wlan[0].radio receptionState:vector ETV
attr interpolationmode sample-hold
attr source receptionStateChanged
attr title "Radio reception state, vector"
vector 15 Scenario.node[3].wlan[0].mac.dcf.recoveryProcedure contentionWindowChanged:vector ETV
attr interpolationmode sample-hold
attr title "contention window, vector"
vector 16 Scenario.node[4].wlan[0].radio radioMode:vector ETV
attr interpolationmode sample-hold
attr source radioModeChanged
attr title "Radio mode, vector"
vector 17 Scenario.node[4].wlan[0].radio radioChannel:vector ETV
attr interpolationmode sample-hold
attr source radioChannelChanged
attr title "Radio channel, vector"
vector 18 Scenario.node[4].wlan[0].radio receptionState:vector ETV
attr interpolationmode sample-hold
attr source receptionStateChanged
attr title "Radio reception state, vector"
vector 19 Scenario.node[4].wlan[0].mac.dcf.recoveryProcedure contentionWindowChanged:vector ETV
attr interpolationmode sample-hold
attr title "contention window, vector"
vector 20 Scenario.node[5].wlan[0].radio radioMode:vector ETV
attr interpolationmode sample-hold
attr source radioModeChanged
attr title "Radio mode, vector"
vector 21 Scenario.node[5].wlan[0].radio radioChannel:vector ETV
attr interpolationmode sample-hold
attr source radioChannelChanged
attr title "Radio channel, vector"
vector 22 Scenario.node[5].wlan[0].radio receptionState:vector ETV
attr interpolationmode sample-hold
attr source receptionStateChanged
attr title "Radio reception state, vector"
vector 23 Scenario.node[5].wlan[0].mac.dcf.recoveryProcedure contentionWindowChanged:vector ETV
attr interpolationmode sample-hold
attr title "contention window, vector"
vector 24 Scenario.node[6].wlan[0].radio radioMode:vector ETV
attr interpolationmode sample-hold
attr source radioModeChanged
attr title "Radio mode, vector"
vector 25 Scenario.node[6].wlan[0].radio radioChannel:vector ETV
attr interpolationmode sample-hold
attr source radioChannelChanged
attr title "Radio channel, vector"
vector 26 Scenario.node[6].wlan[0].radio receptionState:vector ETV
attr interpolationmode sample-hold
attr source receptionStateChanged
attr title "Radio reception state, vector"
vector 27 Scenario.node[6].wlan[0].mac.dcf.recoveryProcedure contentionWindowChanged:vector ETV
attr interpolationmode sample-hold
attr title "contention window, vector"
vector 28 Scenario.node[7].wlan[0].radio radioMode:vector ETV
attr interpolationmode sample-hold
attr source radioModeChanged
attr title "Radio mode, vector"
vector 29 Scenario.node[7].wlan[0].radio radioChannel:vector ETV
attr interpolationmode sample-hold
attr source radioChannelChanged
attr title "Radio channel, vector"
vector 30 Scenario.node[7].wlan[0].radio receptionState:vector ETV
attr interpolationmode sample-hold
attr source receptionStateChanged
attr title "Radio reception state, vector"
vector 31 Scenario.node[7].wlan[0].mac.dcf.recoveryProcedure contentionWindowChanged:vector ETV
attr interpolationmode sample-hold
attr title "contention window, vector"
vector 32 Scenario.node[8].wlan[0].radio radioMode:vector ETV
attr interpolationmode sample-hold
attr source radioModeChanged
attr title "Radio mode, vector"
vector 33 Scenario.node[8].wlan[0].radio radioChannel:vector ETV
attr interpolationmode sample-hold
attr source radioChannelChanged
attr title "Radio channel, vector"
vector 34 Scenario.node[8].wlan[0].radio receptionState:vector ETV
attr interpolationmode sample-hold
attr source receptionStateChanged
attr title "Radio reception state, vector"
vector 35 Scenario.node[8].wlan[0].mac.dcf.recoveryProcedure contentionWindowChanged:vector ETV
attr interpolationmode sample-hold
attr title "contention window, vector"
vector 36 Scenario.node[9].wlan[0].radio radioMode:vector ETV
attr interpolationmode sample-hold
attr source radioModeChanged
attr title "Radio mode, vector"
vector 37 Scenario.node[9].wlan[0].radio radioChannel:vector ETV
attr interpolationmode sample-hold
attr source radioChannelChanged
attr title "Radio channel, vector"
vector 38 Scenario.node[9].wlan[0].radio receptionState:vector ETV
attr interpolationmode sample-hold
attr source receptionStateChanged
attr title "Radio reception state, vector"
vector 39 Scenario.node[9].wlan[0].mac.dcf.recoveryProcedure contentionWindowChanged:vector ETV
attr interpolationmode sample-hold
attr title "contention window, vector"
vector 40 Scenario.node[10].wlan[0].radio radioMode:vector ETV
attr interpolationmode sample-hold
attr source radioModeChanged
attr title "Radio mode, vector"
vector 41 Scenario.node[10].wlan[0].radio radioChannel:vector ETV
attr interpolationmode sample-hold
attr source radioChannelChanged
attr title "Radio channel, vector"
vector 42 Scenario.node[10].wlan[0].radio receptionState:vector ETV
attr interpolationmode sample-hold
attr source receptionStateChanged
attr title "Radio reception state, vector"
vector 43 Scenario.node[10].wlan[0].mac.dcf.recoveryProcedure contentionWindowChanged:vector ETV
attr interpolationmode sample-hold
attr title "contention window, vector"
vector 44 Scenario.node[11].wlan[0].radio radioMode:vector ETV
attr interpolationmode sample-hold
attr source radioModeChanged
attr title "Radio mode, vector"
vector 45 Scenario.node[11].wlan[0].radio radioChannel:vector ETV
attr interpolationmode sample-hold
attr source radioChannelChanged
attr title "Radio channel, vector"
vector 46 Scenario.node[11].wlan[0].radio receptionState:vector ETV
attr interpolationmode sample-hold
attr source receptionStateChanged
attr title "Radio reception state, vector"
vector 47 Scenario.node[11].wlan[0].mac.dcf.recoveryProcedure contentionWindowChanged:vector ETV
attr interpolationmode sample-hold
attr title "contention window, vector"
vector 48 Scenario.node[12].wlan[0].radio radioMode:vector ETV
attr interpolationmode sample-hold
attr source radioModeChanged
attr title "Radio mode, vector"
vector 49 Scenario.node[12].wlan[0].radio radioChannel:vector ETV
attr interpolationmode sample-hold
attr source radioChannelChanged
attr title "Radio channel, vector"
vector 50 Scenario.node[12].wlan[0].radio receptionState:vector ETV
attr interpolationmode sample-hold
attr source receptionStateChanged
attr title "Radio reception state, vector"
vector 51 Scenario.node[12].wlan[0].mac.dcf.recoveryProcedure contentionWindowChanged:vector ETV
attr interpolationmode sample-hold
attr title "contention window, vector"
vector 52 Scenario.node[0].app[0] packetSent:vector(packetBytes) ETV
attr interpolationmode none
attr source packetSent
attr title "packets sent, vector(packetBytes)"
vector 53 Scenario.node[0].udp packetSent:vector(packetBytes) ETV
attr interpolationmode none
attr source packetSent
attr title "packets sent, vector(packetBytes)"
vector 54 Scenario.node[0].lo[0].lo rcvdPkFromHl:vector(packetBytes) ETV
attr interpolationmode none
attr source packetReceivedFromUpper
attr title "packets received from higher layer, vector(packetBytes)"
vector 55 Scenario.node[0].lo[0].lo passedUpPk:vector(packetBytes) ETV
attr interpolationmode none
attr source packetSentToUpper
attr title "packets passed to higher layer, vector(packetBytes)"
vector 56 Scenario.node[0].wlan[0].mac packetReceivedFromUpper:vector(packetBytes) ETV
attr interpolationmode none
attr title "packets received from upper layer, vector(packetBytes)"
vector 57 Scenario.node[0].wlan[0].mac.dcf.channelAccess.pendingQueue packetPushed:vector(packetBytes) ETV
attr interpolationmode none
attr title "packet pushed, vector(packetBytes)"
vector 58 Scenario.node[0].wlan[0].mac.dcf.channelAccess.pendingQueue queueLength:vector ETV
attr interpolationmode sample-hold
attr source "count(packetPushed) - count(packetPopped) - count(packetRemoved) - count(packetDropped)"
attr title "queue length, vector"
vector 59 Scenario.node[0].wlan[0].mac.dcf.channelAccess.contention backoffPeriodGenerated:vector ETV
attr interpolationmode none
attr title "backoff periods, vector"
vector 60 Scenario.node[0].wlan[0].mac.dcf.channelAccess.contention backoffActive:vector ETV
attr interpolationmode sample-hold
attr source count(backoffStarted)-count(backoffStopped)
attr title "backoff active, vector"
vector 61 Scenario.node[0].udp packetReceived:vector(packetBytes) ETV
attr interpolationmode none
attr source packetReceived
attr title "packets received, vector(packetBytes)"
vector 62 Scenario.node[0].udp passedUpPk:vector(count) ETV
attr interpolationmode none
attr source packetSentToUpper
attr title "packets passed up, vector(count)"
vector 63 Scenario.node[0].app[0] packetReceived:vector(packetBytes) ETV
attr interpolationmode none
attr source packetReceived
attr title "packets received, vector(packetBytes)"
vector 64 Scenario.node[0].app[0] throughput:vector ETV
attr source throughput(packetReceived)
attr title "throughput, vector"
attr unit bps
vector 65 Scenario.node[0].app[0] rcvdPkLifetime:vector ETV
attr interpolationmode none
attr source dataAge(packetReceived)
attr title "received packet lifetime, vector"
attr unit s
vector 66 Scenario.node[0].wlan[0].mac.dcf.channelAccess.pendingQueue packetPopped:vector(packetBytes) ETV
attr interpolationmode none
attr title "packet popped, vector(packetBytes)"
vector 67 Scenario.node[0].wlan[0].mac.dcf.channelAccess.pendingQueue queueingTime:vector ETV
attr interpolationmode none
attr source queueingTime(packetPopped)
attr title "queueing times, vector"
attr unit s
vector 68 Scenario.node[0].wlan[0].mac.dcf.channelAccess.inProgressFrames queueLength:vector ETV
attr interpolationmode sample-hold
attr source "count(packetEnqueued) - count(packetDequeued)"
attr title "queue length, vector"
vector 69 Scenario.node[0].wlan[0].mac.dcf datarateSelected:vector ETV
attr interpolationmode none
attr title "datarates selected, vector"
vector 70 Scenario.node[0].wlan[0].mac packetSentToLower:vector(packetBytes) ETV
attr interpolationmode none
attr title "packets sent to lower layer, vector(packetBytes)"
vector 71 Scenario.node[0].wlan[0].mac.dcf frameSequenceActive:vector ETV
attr interpolationmode sample-hold
attr source count(frameSequenceStarted)-count(frameSequenceFinished)
attr title "frame sequence active, vector"
vector 72 Scenario.node[0].wlan[0].radio transmissionState:vector ETV
attr interpolationmode sample-hold
attr source transmissionStateChanged
attr title "Radio transmission state, vector"
vector 73 Scenario.node[0].wlan[0].mac.dcf packetSentToPeer:vector(packetBytes) ETV
attr interpolationmode none
attr title "packets sent, vector(packetBytes)"
vector 74 Scenario.node[0].wlan[0].mac.dcf packetSentToPeerMulticast:vector(packetBytes) ETV
attr interpolationmode none
attr source ieee80211Multicast(packetSentToPeer)
attr title "packets sent: multicast, vector(packetBytes)"
vector 75 Scenario.node[0].wlan[0].mac.dcf packetSentToPeerWithoutRetry:vector(packetBytes) ETV
attr interpolationmode none
attr source ieee80211NotRetry(packetSentToPeer)
attr title "packets sent: without retry, vector(packetBytes)"
vector 76 Scenario.node[0].wlan[0].mac.dcf.channelAccess.inProgressFrames queueingTime:vector ETV
attr interpolationmode none
attr source queueingTime(packetDequeued)
attr title "queueing times, vector"
vector 77 Scenario.node[8].wlan[0].mac packetReceivedFromLower:vector(packetBytes) ETV
attr interpolationmode none
attr title "packets received from lower layer, vector(packetBytes)"
vector 78 Scenario.node[8].wlan[0].mac.dcf packetReceivedFromPeer:vector(packetBytes) ETV
attr interpolationmode none
attr title "packets received, vector(packetBytes)"
vector 79 Scenario.node[8].wlan[0].mac.dcf packetReceivedFromPeerMulticast:vector(packetBytes) ETV
attr interpolationmode none
attr source ieee80211Multicast(packetReceivedFromPeer)
attr title "packets received: multicast, vector(packetBytes)"
vector 80 Scenario.node[8].wlan[0].mac.dcf packetReceivedFromPeerWithoutRetry:vector(packetBytes) ETV
attr interpolationmode none
attr source ieee80211NotRetry(packetReceivedFromPeer)
attr title "packets received: without retry, vector(packetBytes)"
vector 81 Scenario.node[8].wlan[0].mac packetSentToUpper:vector(packetBytes) ETV
attr interpolationmode none
attr title "packets sent to upper layer, vector(packetBytes)"
vector 82 Scenario.node[8].udp packetReceived:vector(packetBytes) ETV
attr interpolationmode none
attr source packetReceived
attr title "packets received, vector(packetBytes)"
vector 83 Scenario.node[8].udp passedUpPk:vector(count) ETV
attr interpolationmode none
attr source packetSentToUpper
attr title "packets passed up, vector(count)"
vector 84 Scenario.node[8].app[0] packetReceived:vector(packetBytes) ETV
attr interpolationmode none
attr source packetReceived
attr title "packets received, vector(packetBytes)"
vector 85 Scenario.node[8].app[0] throughput:vector ETV
attr source throughput(packetReceived)
attr title "throughput, vector"
attr unit bps
vector 86 Scenario.node[8].app[0] rcvdPkLifetime:vector ETV
attr interpolationmode none
attr source dataAge(packetReceived)
attr title "received packet lifetime, vector"
attr unit s
vector 87 Scenario.node[4].wlan[0].mac packetReceivedFromLower:vector(packetBytes) ETV
attr interpolationmode none
attr title "packets received from lower layer, vector(packetBytes)"
vector 88 Scenario.node[4].wlan[0].mac.dcf packetReceivedFromPeer:vector(packetBytes) ETV
attr interpolationmode none
attr title "packets received, vector(packetBytes)"
vector 89 Scenario.node[4].wlan[0].mac.dcf packetReceivedFromPeerMulticast:vector(packetBytes) ETV
attr interpolationmode none
attr source ieee80211Multicast(packetReceivedFromPeer)
attr title "packets received: multicast, vector(packetBytes)"
vector 90 Scenario.node[4].wlan[0].mac.dcf packetReceivedFromPeerWithoutRetry:vector(packetBytes) ETV
attr interpolationmode none
attr source ieee80211NotRetry(packetReceivedFromPeer)
attr title "packets received: without retry, vector(packetBytes)"
vector 91 Scenario.node[4].wlan[0].mac packetSentToUpper:vector(packetBytes) ETV
attr interpolationmode none
attr title "packets sent to upper layer, vector(packetBytes)"
vector 92 Scenario.node[4].udp packetReceived:vector(packetBytes) ETV
attr interpolationmode none
attr source packetReceived
attr title "packets received, vector(packetBytes)"
vector 93 Scenario.node[4].udp passedUpPk:vector(count) ETV
attr interpolationmode none
attr source packetSentToUpper
attr title "packets passed up, vector(count)"
vector 94 Scenario.node[4].app[0] packetReceived:vector(packetBytes) ETV
attr interpolationmode none
attr source packetReceived
attr title "packets received, vector(packetBytes)"
vector 95 Scenario.node[4].app[0] throughput:vector ETV
attr source throughput(packetReceived)
attr title "throughput, vector"
attr unit bps
vector 96 Scenario.node[4].app[0] rcvdPkLifetime:vector ETV
attr interpolationmode none
attr source dataAge(packetReceived)
attr title "received packet lifetime, vector"
attr unit s
vector 97 Scenario.node[9].wlan[0].mac packetReceivedFromLower:vector(packetBytes) ETV
attr interpolationmode none
attr title "packets received from lower layer, vector(packetBytes)"
vector 98 Scenario.node[9].wlan[0].mac.dcf packetReceivedFromPeer:vector(packetBytes) ETV
attr interpolationmode none
attr title "packets received, vector(packetBytes)"
vector 99 Scenario.node[9].wlan[0].mac.dcf packetReceivedFromPeerMulticast:vector(packetBytes) ETV
attr interpolationmode none
attr source ieee80211Multicast(packetReceivedFromPeer)
attr title "packets received: multicast, vector(packetBytes)"
vector 100 Scenario.node[9].wlan[0].mac.dcf packetReceivedFromPeerWithoutRetry:vector(packetBytes) ETV
attr interpolationmode none
attr source ieee80211NotRetry(packetReceivedFromPeer)
attr title "packets received: without retry, vector(packetBytes)"
vector 101 Scenario.node[9].wlan[0].mac packetSentToUpper:vector(packetBytes) ETV
attr interpolationmode none
attr title "packets sent to upper layer, vector(packetBytes)"
vector 102 Scenario.node[9].udp packetReceived:vector(packetBytes) ETV
attr interpolationmode none
attr source packetReceived
attr title "packets received, vector(packetBytes)"
vector 103 Scenario.node[9].udp passedUpPk:vector(count) ETV
attr interpolationmode none
attr source packetSentToUpper
attr title "packets passed up, vector(count)"
vector 104 Scenario.node[9].app[0] packetReceived:vector(packetBytes) ETV
attr interpolationmode none
attr source packetReceived
attr title "packets received, vector(packetBytes)"
vector 105 Scenario.node[9].app[0] throughput:vector ETV
attr source throughput(packetReceived)
attr title "throughput, vector"
attr unit bps
vector 106 Scenario.node[9].app[0] rcvdPkLifetime:vector ETV
attr interpolationmode none
attr source dataAge(packetReceived)
attr title "received packet lifetime, vector"
attr unit s
vector 107 Scenario.node[10].wlan[0].mac packetReceivedFromLower:vector(packetBytes) ETV
attr interpolationmode none
attr title "packets received from lower layer, vector(packetBytes)"
vector 108 Scenario.node[10].wlan[0].mac.dcf packetReceivedFromPeer:vector(packetBytes) ETV
attr interpolationmode none
attr title "packets received, vector(packetBytes)"
vector 109 Scenario.node[10].wlan[0].mac.dcf packetReceivedFromPeerMulticast:vector(packetBytes) ETV
attr interpolationmode none
attr source ieee80211Multicast(packetReceivedFromPeer)
attr title "packets received: multicast, vector(packetBytes)"
vector 110 Scenario.node[10].wlan[0].mac.dcf packetReceivedFromPeerWithoutRetry:vector(packetBytes) ETV
attr interpolationmode none
attr source ieee80211NotRetry(packetReceivedFromPeer)
attr title "packets received: without retry, vector(packetBytes)"
vector 111 Scenario.node[10].wlan[0].mac packetSentToUpper:vector(packetBytes) ETV
attr interpolationmode none
attr title "packets sent to upper layer, vector(packetBytes)"
vector 112 Scenario.node[10].udp packetReceived:vector(packetBytes) ETV
attr interpolationmode none
attr source packetReceived
attr title "packets received, vector(packetBytes)"
vector 113 Scenario.node[10].udp passedUpPk:vector(count) ETV
attr interpolationmode none
attr source packetSentToUpper
attr title "packets passed up, vector(count)"
vector 114 Scenario.node[10].app[0] packetReceived:vector(packetBytes) ETV
attr interpolationmode none
attr source packetReceived
attr title "packets received, vector(packetBytes)"
vector 115 Scenario.node[10].app[0] throughput:vector ETV
attr source throughput(packetReceived)
attr title "throughput, vector"
attr unit bps
vector 116 Scenario.node[10].app[0] rcvdPkLifetime:vector ETV
attr interpolationmode none
attr source dataAge(packetReceived)
attr title "received packet lifetime, vector"
attr unit s
vector 117 Scenario.node[5].wlan[0].mac packetReceivedFromLower:vector(packetBytes) ETV
attr interpolationmode none
attr title "packets received from lower layer, vector(packetBytes)"
vector 118 Scenario.node[5].wlan[0].mac.dcf packetReceivedFromPeer:vector(packetBytes) ETV
attr interpolationmode none
attr title "packets received, vector(packetBytes)"
vector 119 Scenario.node[5].wlan[0].mac.dcf packetReceivedFromPeerMulticast:vector(packetBytes) ETV
attr interpolationmode none
attr source ieee80211Multicast(packetReceivedFromPeer)
attr title "packets received: multicast, vector(packetBytes)"
vector 120 Scenario.node[5].wlan[0].mac.dcf packetReceivedFromPeerWithoutRetry:vector(packetBytes) ETV
attr interpolationmode none
attr source ieee80211NotRetry(packetReceivedFromPeer)
attr title "packets received: without retry, vector(packetBytes)"
vector 121 Scenario.node[5].wlan[0].mac packetSentToUpper:vector(packetBytes) ETV
attr interpolationmode none
attr title "packets sent to upper layer, vector(packetBytes)"
vector 122 Scenario.node[5].udp packetReceived:vector(packetBytes) ETV
attr interpolationmode none
attr source packetReceived
attr title "packets received, vector(packetBytes)"
vector 123 Scenario.node[5].udp passedUpPk:vector(count) ETV
attr interpolationmode none
attr source packetSentToUpper
attr title "packets passed up, vector(count)"
vector 124 Scenario.node[5].app[0] packetReceived:vector(packetBytes) ETV
attr interpolationmode none
attr source packetReceived
attr title "packets received, vector(packetBytes)"
vector 125 Scenario.node[5].app[0] throughput:vector ETV
attr source throughput(packetReceived)
attr title "throughput, vector"
attr unit bps
vector 126 Scenario.node[5].app[0] rcvdPkLifetime:vector ETV
attr interpolationmode none
attr source dataAge(packetReceived)
attr title "received packet lifetime, vector"
attr unit s
vector 127 Scenario.node[1].wlan[0].mac packetReceivedFromLower:vector(packetBytes) ETV
attr interpolationmode none
attr title "packets received from lower layer, vector(packetBytes)"
vector 128 Scenario.node[1].wlan[0].mac.dcf packetReceivedFromPeer:vector(packetBytes) ETV
attr interpolationmode none
attr title "packets received, vector(packetBytes)"
vector 129 Scenario.node[1].wlan[0].mac.dcf packetReceivedFromPeerMulticast:vector(packetBytes) ETV
attr interpolationmode none
attr source ieee80211Multicast(packetReceivedFromPeer)
attr title "packets received: multicast, vector(packetBytes)"
vector 130 Scenario.node[1].wlan[0].mac.dcf packetReceivedFromPeerWithoutRetry:vector(packetBytes) ETV
attr interpolationmode none
attr source ieee80211NotRetry(packetReceivedFromPeer)
attr title "packets received: without retry, vector(packetBytes)"
vector 131 Scenario.node[1].wlan[0].mac packetSentToUpper:vector(packetBytes) ETV
attr interpolationmode none
attr title "packets sent to upper layer, vector(packetBytes)"
vector 132 Scenario.node[1].udp packetReceived:vector(packetBytes) ETV
attr interpolationmode none
attr source packetReceived
attr title "packets received, vector(packetBytes)"
vector 133 Scenario.node[1].udp passedUpPk:vector(count) ETV
attr interpolationmode none
attr source packetSentToUpper
attr title "packets passed up, vector(count)"
vector 134 Scenario.node[1].app[0] packetReceived:vector(packetBytes) ETV
attr interpolationmode none
attr source packetReceived
attr title "packets received, vector(packetBytes)"
vector 135 Scenario.node[1].app[0] throughput:vector ETV
attr source throughput(packetReceived)
attr title "throughput, vector"
attr unit bps
vector 136 Scenario.node[1].app[0] rcvdPkLifetime:vector ETV
attr interpolationmode none
attr source dataAge(packetReceived)
attr title "received packet lifetime, vector"
attr unit s
vector 137 Scenario.node[7].wlan[0].mac packetReceivedFromLower:vector(packetBytes) ETV
attr interpolationmode none
attr title "packets received from lower layer, vector(packetBytes)"
vector 138 Scenario.node[7].wlan[0].mac.dcf packetReceivedFromPeer:vector(packetBytes) ETV
attr interpolationmode none
attr title "packets received, vector(packetBytes)"
vector 139 Scenario.node[7].wlan[0].mac.dcf packetReceivedFromPeerMulticast:vector(packetBytes) ETV
attr interpolationmode none
attr source ieee80211Multicast(packetReceivedFromPeer)
attr title "packets received: multicast, vector(packetBytes)"
vector 140 Scenario.node[7].wlan[0].mac.dcf packetReceivedFromPeerWithoutRetry:vector(packetBytes) ETV
attr interpolationmode none
attr source ieee80211NotRetry(packetReceivedFromPeer)
attr title "packets received: without retry, vector(packetBytes)"
vector 141 Scenario.node[7].wlan[0].mac packetSentToUpper:vector(packetBytes) ETV
attr interpolationmode none
attr title "packets sent to upper layer, vector(packetBytes)"
vector 142 Scenario.node[7].udp packetReceived:vector(packetBytes) ETV
attr interpolationmode none
attr source packetReceived
attr title "packets received, vector(packetBytes)"
vector 143 Scenario.node[7].udp passedUpPk:vector(count) ETV
attr interpolationmode none
attr source packetSentToUpper
attr title "packets passed up, vector(count)"
vector 144 Scenario.node[7].app[0] packetReceived:vector(packetBytes) ETV
attr interpolationmode none
attr source packetReceived
attr title "packets received, vector(packetBytes)"
vector 145 Scenario.node[7].app[0] throughput:vector ETV
attr source throughput(packetReceived)
attr title "throughput, vector"
attr unit bps
vector 146 Scenario.node[7].app[0] rcvdPkLifetime:vector ETV
attr interpolationmode none
attr source dataAge(packetReceived)
attr title "received packet lifetime, vector"
attr unit s
vector 147 Scenario.node[11].wlan[0].mac packetReceivedFromLower:vector(packetBytes) ETV
attr interpolationmode none
attr title "packets received from lower layer, vector(packetBytes)"
vector 148 Scenario.node[11].wlan[0].mac.dcf packetReceivedFromPeer:vector(packetBytes) ETV
attr interpolationmode none
attr title "packets received, vector(packetBytes)"
vector 149 Scenario.node[11].wlan[0].mac.dcf packetReceivedFromPeerMulticast:vector(packetBytes) ETV
attr interpolationmode none
attr source ieee80211Multicast(packetReceivedFromPeer)
attr title "packets received: multicast, vector(packetBytes)"
vector 150 Scenario.node[11].wlan[0].mac.dcf packetReceivedFromPeerWithoutRetry:vector(packetBytes) ETV
attr interpolationmode none
attr source ieee80211NotRetry(packetReceivedFromPeer)
attr title "packets received: without retry, vector(packetBytes)"
vector 151 Scenario.node[11].wlan[0].mac packetSentToUpper:vector(packetBytes) ETV
attr interpolationmode none
attr title "packets sent to upper layer, vector(packetBytes)"
vector 152 Scenario.node[11].udp packetReceived:vector(packetBytes) ETV
attr interpolationmode none
attr source packetReceived
attr title "packets received, vector(packetBytes)"
vector 153 Scenario.node[11].udp passedUpPk:vector(count) ETV
attr interpolationmode none
attr source packetSentToUpper
attr title "packets passed up, vector(count)"
vector 154 Scenario.node[11].app[0] packetReceived:vector(packetBytes) ETV
attr interpolationmode none
attr source packetReceived
attr title "packets received, vector(packetBytes)"
vector 155 Scenario.node[11].app[0] throughput:vector ETV
attr source throughput(packetReceived)
attr title "throughput, vector"
attr unit bps
vector 156 Scenario.node[11].app[0] rcvdPkLifetime:vector ETV
attr interpolationmode none
attr source dataAge(packetReceived)
attr title "received packet lifetime, vector"
attr unit s
vector 157 Scenario.node[12].wlan[0].mac packetReceivedFromLower:vector(packetBytes) ETV
attr interpolationmode none
attr title "packets received from lower layer, vector(packetBytes)"
vector 158 Scenario.node[12].wlan[0].mac.dcf packetReceivedFromPeer:vector(packetBytes) ETV
attr interpolationmode none
attr title "packets received, vector(packetBytes)"
vector 159 Scenario.node[12].wlan[0].mac.dcf packetReceivedFromPeerMulticast:vector(packetBytes) ETV
attr interpolationmode none
attr source ieee80211Multicast(packetReceivedFromPeer)
attr title "packets received: multicast, vector(packetBytes)"
vector 160 Scenario.node[12].wlan[0].mac.dcf packetReceivedFromPeerWithoutRetry:vector(packetBytes) ETV
attr interpolationmode none
attr source ieee80211NotRetry(packetReceivedFromPeer)
attr title "packets received: without retry, vector(packetBytes)"
vector 161 Scenario.node[12].wlan[0].mac packetSentToUpper:vector(packetBytes) ETV
attr interpolationmode none
attr title "packets sent to upper layer, vector(packetBytes)"
vector 162 Scenario.node[12].udp packetReceived:vector(packetBytes) ETV
attr interpolationmode none
attr source packetReceived
attr title "packets received, vector(packetBytes)"
vector 163 Scenario.node[12].udp passedUpPk:vector(count) ETV
attr interpolationmode none
attr source packetSentToUpper
attr title "packets passed up, vector(count)"
vector 164 Scenario.node[12].app[0] packetReceived:vector(packetBytes) ETV
attr interpolationmode none
attr source packetReceived
attr title "packets received, vector(packetBytes)"
vector 165 Scenario.node[12].app[0] throughput:vector ETV
attr source throughput(packetReceived)
attr title "throughput, vector"
attr unit bps
vector 166 Scenario.node[12].app[0] rcvdPkLifetime:vector ETV
attr interpolationmode none
attr source dataAge(packetReceived)
attr title "received packet lifetime, vector"
attr unit s
vector 167 Scenario.node[2].wlan[0].mac packetReceivedFromLower:vector(packetBytes) ETV
attr interpolationmode none
attr title "packets received from lower layer, vector(packetBytes)"
vector 168 Scenario.node[2].wlan[0].mac.dcf packetReceivedFromPeer:vector(packetBytes) ETV
attr interpolationmode none
attr title "packets received, vector(packetBytes)"
vector 169 Scenario.node[2].wlan[0].mac.dcf packetReceivedFromPeerMulticast:vector(packetBytes) ETV
attr interpolationmode none
attr source ieee80211Multicast(packetReceivedFromPeer)
attr title "packets received: multicast, vector(packetBytes)"
vector 170 Scenario.node[2].wlan[0].mac.dcf packetReceivedFromPeerWithoutRetry:vector(packetBytes) ETV
attr interpolationmode none
attr source ieee80211NotRetry(packetReceivedFromPeer)
attr title "packets received: without retry, vector(packetBytes)"
vector 171 Scenario.node[2].wlan[0].mac packetSentToUpper:vector(packetBytes) ETV
attr interpolationmode none
attr title "packets sent to upper layer, vector(packetBytes)"
vector 172 Scenario.node[2].udp packetReceived:vector(packetBytes) ETV
attr interpolationmode none
attr source packetReceived
attr title "packets received, vector(packetBytes)"
vector 173 Scenario.node[2].udp passedUpPk:vector(count) ETV
attr interpolationmode none
attr source packetSentToUpper
attr title "packets passed up, vector(count)"
vector 174 Scenario.node[2].app[0] packetReceived:vector(packetBytes) ETV
attr interpolationmode none
attr source packetReceived
attr title "packets received, vector(packetBytes)"
vector 175 Scenario.node[2].app[0] throughput:vector ETV
attr source throughput(packetReceived)
attr title "throughput, vector"
attr unit bps
vector 176 Scenario.node[2].app[0] rcvdPkLifetime:vector ETV
attr interpolationmode none
attr source dataAge(packetReceived)
attr title "received packet lifetime, vector"
attr unit s
vector 177 Scenario.node[6].wlan[0].mac packetReceivedFromLower:vector(packetBytes) ETV
attr interpolationmode none
attr title "packets received from lower layer, vector(packetBytes)"
vector 178 Scenario.node[6].wlan[0].mac.dcf packetReceivedFromPeer:vector(packetBytes) ETV
attr interpolationmode none
attr title "packets received, vector(packetBytes)"
vector 179 Scenario.node[6].wlan[0].mac.dcf packetReceivedFromPeerMulticast:vector(packetBytes) ETV
attr interpolationmode none
attr source ieee80211Multicast(packetReceivedFromPeer)
attr title "packets received: multicast, vector(packetBytes)"
vector 180 Scenario.node[6].wlan[0].mac.dcf packetReceivedFromPeerWithoutRetry:vector(packetBytes) ETV
attr interpolationmode none
attr source ieee80211NotRetry(packetReceivedFromPeer)
attr title "packets received: without retry, vector(packetBytes)"
vector 181 Scenario.node[6].wlan[0].mac packetSentToUpper:vector(packetBytes) ETV
attr interpolationmode none
attr title "packets sent to upper layer, vector(packetBytes)"
vector 182 Scenario.node[6].udp packetReceived:vector(packetBytes) ETV
attr interpolationmode none
attr source packetReceived
attr title "packets received, vector(packetBytes)"
vector 183 Scenario.node[6].udp passedUpPk:vector(count) ETV
attr interpolationmode none
attr source packetSentToUpper
attr title "packets passed up, vector(count)"
vector 184 Scenario.node[6].app[0] packetReceived:vector(packetBytes) ETV
attr interpolationmode none
attr source packetReceived
attr title "packets received, vector(packetBytes)"
vector 185 Scenario.node[6].app[0] throughput:vector ETV
attr source throughput(packetReceived)
attr title "throughput, vector"
attr unit bps
vector 186 Scenario.node[6].app[0] rcvdPkLifetime:vector ETV
attr interpolationmode none
attr source dataAge(packetReceived)
attr title "received packet lifetime, vector"
attr unit s
vector 187 Scenario.node[13].wlan[0].radio radioMode:vector ETV
attr interpolationmode sample-hold
attr source radioModeChanged
attr title "Radio mode, vector"
vector 188 Scenario.node[13].wlan[0].radio radioChannel:vector ETV
attr interpolationmode sample-hold
attr source radioChannelChanged
attr title "Radio channel, vector"
vector 189 Scenario.node[13].wlan[0].radio receptionState:vector ETV
attr interpolationmode sample-hold
attr source receptionStateChanged
attr title "Radio reception state, vector"
vector 190 Scenario.node[13].wlan[0].mac.dcf.recoveryProcedure contentionWindowChanged:vector ETV
attr interpolationmode sample-hold
attr title "contention window, vector"
vector 191 Scenario.node[14].wlan[0].radio radioMode:vector ETV
attr interpolationmode sample-hold
attr source radioModeChanged
attr title "Radio mode, vector"
vector 192 Scenario.node[14].wlan[0].radio radioChannel:vector ETV
attr interpolationmode sample-hold
attr source radioChannelChanged
attr title "Radio channel, vector"
vector 193 Scenario.node[14].wlan[0].radio receptionState:vector ETV
attr interpolationmode sample-hold
attr source receptionStateChanged
attr title "Radio reception state, vector"
vector 194 Scenario.node[14].wlan[0].mac.dcf.recoveryProcedure contentionWindowChanged:vector ETV
attr interpolationmode sample-hold
attr title "contention window, vector"
vector 195 Scenario.node[15].wlan[0].radio radioMode:vector ETV
attr interpolationmode sample-hold
attr source radioModeChanged
attr title "Radio mode, vector"
vector 196 Scenario.node[15].wlan[0].radio radioChannel:vector ETV
attr interpolationmode sample-hold
attr source radioChannelChanged
attr title "Radio channel, vector"
vector 197 Scenario.node[15].wlan[0].radio receptionState:vector ETV
attr interpolationmode sample-hold
attr source receptionStateChanged
attr title "Radio reception state, vector"
vector 198 Scenario.node[15].wlan[0].mac.dcf.recoveryProcedure contentionWindowChanged:vector ETV
attr interpolationmode sample-hold
attr title "contention window, vector"
vector 199 Scenario.node[16].wlan[0].radio radioMode:vector ETV
attr interpolationmode sample-hold
attr source radioModeChanged
attr title "Radio mode, vector"
vector 200 Scenario.node[16].wlan[0].radio radioChannel:vector ETV
attr interpolationmode sample-hold
attr source radioChannelChanged
attr title "Radio channel, vector"
vector 201 Scenario.node[16].wlan[0].radio receptionState:vector ETV
attr interpolationmode sample-hold
attr source receptionStateChanged
attr title "Radio reception state, vector"
vector 202 Scenario.node[16].wlan[0].mac.dcf.recoveryProcedure contentionWindowChanged:vector ETV
attr interpolationmode sample-hold
attr title "contention window, vector"
vector 203 Scenario.node[17].wlan[0].radio radioMode:vector ETV
attr interpolationmode sample-hold
attr source radioModeChanged
attr title "Radio mode, vector"
vector 204 Scenario.node[17].wlan[0].radio radioChannel:vector ETV
attr interpolationmode sample-hold
attr source radioChannelChanged
attr title "Radio channel, vector"
vector 205 Scenario.node[17].wlan[0].radio receptionState:vector ETV
attr interpolationmode sample-hold
attr source receptionStateChanged
attr title "Radio reception state, vector"
vector 206 Scenario.node[17].wlan[0].mac.dcf.recoveryProcedure contentionWindowChanged:vector ETV
attr interpolationmode sample-hold
attr title "contention window, vector"
vector 207 Scenario.node[18].wlan[0].radio radioMode:vector ETV
attr interpolationmode sample-hold
attr source radioModeChanged
attr title "Radio mode, vector"
vector 208 Scenario.node[18].wlan[0].radio radioChannel:vector ETV
attr interpolationmode sample-hold
attr source radioChannelChanged
attr title "Radio channel, vector"
vector 209 Scenario.node[18].wlan[0].radio receptionState:vector ETV
attr interpolationmode sample-hold
attr source receptionStateChanged
attr title "Radio reception state, vector"
vector 210 Scenario.node[18].wlan[0].mac.dcf.recoveryProcedure contentionWindowChanged:vector ETV
attr interpolationmode sample-hold
attr title "contention window, vector"
vector 211 Scenario.node[3].app[0] throughput:vector ETV
attr source throughput(packetReceived)
attr title "throughput, vector"
attr unit bps
15	41	3.1	15
14	41	3.1	1
12	41	3.1	0
12	41	3.1	0
12	41	3.1	2
13	41	3.1	3
211	354	0.1	0
211	354	0.2	0
211	354	0.3	0
211	354	0.4	0
211	354	0.5	0
211	354	0.6	0
211	354	0.7	0
211	354	0.8	0
211	354	0.9	0
211	354	1	0
211	354	1.1	0
211	354	1.2	0
211	354	1.3	0
211	354	1.4	0
211	354	1.5	0
211	354	1.6	0
211	354	1.7	0
211	354	1.8	0
211	354	1.9	0
211	354	2	0
211	354	2.1	0
211	354	2.2	0
211	354	2.3	0
211	354	2.4	0
211	354	2.5	0
211	354	2.6	0
211	354	2.7	0
211	354	2.8	0
211	354	2.9	0
211	354	3	0
211	354	3.1	0
211	354	3.2	0
211	354	3.3	0
211	354	3.4	0
211	354	3.5	0
211	354	3.6	0
211	354	3.7	0
211	354	3.8	0
211	354	3.9	0
211	354	4	0
211	354	4.1	0
211	354	4.2	0
211	354	4.3	0
211	354	4.4	0
211	354	4.5	0
211	354	4.6	0
211	354	4.7	0
211	354	4.8	0
211	354	4.9	0
211	354	5	0
211	354	5.1	0
211	354	5.2	0
211	354	5.3	0
211	354	5.4	0
211	354	5.5	0
211	354	5.6	0
211	354	5.7	0
211	354	5.8	0
211	354	5.9	0
211	354	6	0
211	354	6.1	0
211	354	6.2	0
211	354	6.3	0
211	354	6.4	0
211	354	6.5	0
211	354	6.6	0
211	354	6.7	0
211	354	6.8	0
211	354	6.9	0
211	354	7	0
211	354	7.1	0
211	354	7.2	0
211	354	7.3	0
211	354	7.4	0
211	354	7.5	0
211	354	7.6	0
211	354	7.7	0
211	354	7.8	0
211	354	7.9	0
211	354	8	0
211	354	8.1	0
211	354	8.2	0
211	354	8.3	0
211	354	8.4	0
211	354	8.5	0
211	354	8.6	0
211	354	8.7	0
211	354	8.8	0
211	354	8.9	0
211	354	9	0
211	354	9.1	0
211	354	9.2	0
211	354	9.3	0
211	354	9.4	0
211	354	9.5	0
211	354	9.6	0
211	354	9.7	0
211	354	9.8	0
211	354	9.9	0
211	354	10	0
211	354	10.1	0
211	354	10.2	0
211	354	10.3	0
211	354	10.4	0
211	354	10.5	0
211	354	10.6	0
211	354	10.7	0
211	354	10.8	0
211	354	10.9	0
211	354	11	0
211	354	11.1	0
211	354	11.2	0
211	354	11.3	0
211	354	11.4	0
211	354	11.5	0
211	354	11.6	0
211	354	11.7	0
211	354	11.8	0
211	354	11.9	0
211	354	12	0
211	354	12.1	0
211	354	12.2	0
211	354	12.3	0
211	354	12.4	0
211	354	12.5	0
211	354	12.6	0
211	354	12.7	0
211	354	12.8	0
211	354	12.9	0
211	354	13	0
211	354	13.1	0
211	354	13.2	0
211	354	13.3	0
211	354	13.4	0
211	354	13.5	0
211	354	13.6	0
211	354	13.7	0
211	354	13.8	0
211	354	13.9	0
211	354	14	0
211	354	14.1	0
211	354	14.2	0
211	354	14.3	0
211	354	14.4	0
211	354	14.5	0
211	354	14.6	0
211	354	14.7	0
211	354	14.8	0
211	354	14.9	0
211	354	15	0
211	354	15.1	0
211	354	15.2	0
211	354	15.3	0
211	354	15.4	0
211	354	15.5	0
211	354	15.6	0
211	354	15.7	0
211	354	15.8	0
211	354	15.9	0
211	354	16	0
211	354	16.1	0
211	354	16.2	0
211	354	16.3	0
211	354	16.4	0
211	354	16.5	0
211	354	16.6	0
211	354	16.7	0
211	354	16.8	0
211	354	16.9	0
211	354	17	0
211	354	17.1	0
211	354	17.2	0
211	354	17.3	0
211	354	17.4	0
211	354	17.5	0
211	354	17.6	0
211	354	17.7	0
211	354	17.8	0
211	354	17.9	0
211	354	18	0
211	354	18.1	0
211	354	18.2	0
211	354	18.3	0
211	354	18.4	0
211	354	18.5	0
211	354	18.6	0
211	354	18.7	0
211	354	18.8	0
211	354	18.9	0
211	354	19	0
211	354	19.1	0
211	354	19.2	0
211	354	19.3	0
211	354	19.4	0
211	354	19.5	0
211	354	19.6	0
211	354	19.7	0
211	354	19.8	0
211	354	19.9	0
211	354	20	0
211	354	20.1	0
vector 212 Scenario.node[19].wlan[0].radio radioMode:vector ETV
attr interpolationmode sample-hold
attr source radioModeChanged
attr title "Radio mode, vector"
vector 213 Scenario.node[19].wlan[0].radio radioChannel:vector ETV
attr interpolationmode sample-hold
attr source radioChannelChanged
attr title "Radio channel, vector"
vector 214 Scenario.node[19].wlan[0].radio receptionState:vector ETV
attr interpolationmode sample-hold
attr source receptionStateChanged
attr title "Radio reception state, vector"
vector 215 Scenario.node[19].wlan[0].mac.dcf.recoveryProcedure contentionWindowChanged:vector ETV
attr interpolationmode sample-hold
attr title "contention window, vector"
vector 216 Scenario.node[20].wlan[0].radio radioMode:vector ETV
attr interpolationmode sample-hold
attr source radioModeChanged
attr title "Radio mode, vector"
vector 217 Scenario.node[20].wlan[0].radio radioChannel:vector ETV
attr interpolationmode sample-hold
attr source radioChannelChanged
attr title "Radio channel, vector"
vector 218 Scenario.node[20].wlan[0].radio receptionState:vector ETV
attr interpolationmode sample-hold
attr source receptionStateChanged
attr title "Radio reception state, vector"
vector 219 Scenario.node[20].wlan[0].mac.dcf.recoveryProcedure contentionWindowChanged:vector ETV
attr interpolationmode sample-hold
attr title "contention window, vector"
vector 220 Scenario.node[21].wlan[0].radio radioMode:vector ETV
attr interpolationmode sample-hold
attr source radioModeChanged
attr title "Radio mode, vector"
vector 221 Scenario.node[21].wlan[0].radio radioChannel:vector ETV
attr interpolationmode sample-hold
attr source radioChannelChanged
attr title "Radio channel, vector"
vector 222 Scenario.node[21].wlan[0].radio receptionState:vector ETV
attr interpolationmode sample-hold
attr source receptionStateChanged
attr title "Radio reception state, vector"
vector 223 Scenario.node[21].wlan[0].mac.dcf.recoveryProcedure contentionWindowChanged:vector ETV
attr interpolationmode sample-hold
attr title "contention window, vector"
vector 224 Scenario.node[22].wlan[0].radio radioMode:vector ETV
attr interpolationmode sample-hold
attr source radioModeChanged
attr title "Radio mode, vector"
vector 225 Scenario.node[22].wlan[0].radio radioChannel:vector ETV
attr interpolationmode sample-hold
attr source radioChannelChanged
attr title "Radio channel, vector"
vector 226 Scenario.node[22].wlan[0].radio receptionState:vector ETV
attr interpolationmode sample-hold
attr source receptionStateChanged
attr title "Radio reception state, vector"
vector 227 Scenario.node[22].wlan[0].mac.dcf.recoveryProcedure contentionWindowChanged:vector ETV
attr interpolationmode sample-hold
attr title "contention window, vector"
vector 228 Scenario.node[23].wlan[0].radio radioMode:vector ETV
attr interpolationmode sample-hold
attr source radioModeChanged
attr title "Radio mode, vector"
vector 229 Scenario.node[23].wlan[0].radio radioChannel:vector ETV
attr interpolationmode sample-hold
attr source radioChannelChanged
attr title "Radio channel, vector"
vector 230 Scenario.node[23].wlan[0].radio receptionState:vector ETV
attr interpolationmode sample-hold
attr source receptionStateChanged
attr title "Radio reception state, vector"
vector 231 Scenario.node[23].wlan[0].mac.dcf.recoveryProcedure contentionWindowChanged:vector ETV
attr interpolationmode sample-hold
attr title "contention window, vector"
vector 232 Scenario.node[15].wlan[0].mac packetReceivedFromLower:vector(packetBytes) ETV
attr interpolationmode none
attr title "packets received from lower layer, vector(packetBytes)"
vector 233 Scenario.node[15].wlan[0].mac.dcf packetReceivedFromPeer:vector(packetBytes) ETV
attr interpolationmode none
attr title "packets received, vector(packetBytes)"
vector 234 Scenario.node[15].wlan[0].mac.dcf packetReceivedFromPeerMulticast:vector(packetBytes) ETV
attr interpolationmode none
attr source ieee80211Multicast(packetReceivedFromPeer)
attr title "packets received: multicast, vector(packetBytes)"
vector 235 Scenario.node[15].wlan[0].mac.dcf packetReceivedFromPeerWithoutRetry:vector(packetBytes) ETV
attr interpolationmode none
attr source ieee80211NotRetry(packetReceivedFromPeer)
attr title "packets received: without retry, vector(packetBytes)"
vector 236 Scenario.node[15].wlan[0].mac packetSentToUpper:vector(packetBytes) ETV
attr interpolationmode none
attr title "packets sent to upper layer, vector(packetBytes)"
vector 237 Scenario.node[15].udp packetReceived:vector(packetBytes) ETV
attr interpolationmode none
attr source packetReceived
attr title "packets received, vector(packetBytes)"
vector 238 Scenario.node[15].udp passedUpPk:vector(count) ETV
attr interpolationmode none
attr source packetSentToUpper
attr title "packets passed up, vector(count)"
vector 239 Scenario.node[15].app[0] packetReceived:vector(packetBytes) ETV
attr interpolationmode none
attr source packetReceived
attr title "packets received, vector(packetBytes)"
vector 240 Scenario.node[15].app[0] throughput:vector ETV
attr source throughput(packetReceived)
attr title "throughput, vector"
attr unit bps
vector 241 Scenario.node[15].app[0] rcvdPkLifetime:vector ETV
attr interpolationmode none
attr source dataAge(packetReceived)
attr title "received packet lifetime, vector"
attr unit s
vector 242 Scenario.node[13].wlan[0].mac packetReceivedFromLower:vector(packetBytes) ETV
attr interpolationmode none
attr title "packets received from lower layer, vector(packetBytes)"
vector 243 Scenario.node[13].wlan[0].mac.dcf packetReceivedFromPeer:vector(packetBytes) ETV
attr interpolationmode none
attr title "packets received, vector(packetBytes)"
vector 244 Scenario.node[13].wlan[0].mac.dcf packetReceivedFromPeerMulticast:vector(packetBytes) ETV
attr interpolationmode none
attr source ieee80211Multicast(packetReceivedFromPeer)
attr title "packets received: multicast, vector(packetBytes)"
vector 245 Scenario.node[13].wlan[0].mac.dcf packetReceivedFromPeerWithoutRetry:vector(packetBytes) ETV
attr interpolationmode none
attr source ieee80211NotRetry(packetReceivedFromPeer)
attr title "packets received: without retry, vector(packetBytes)"
vector 246 Scenario.node[13].wlan[0].mac packetSentToUpper:vector(packetBytes) ETV
attr interpolationmode none
attr title "packets sent to upper layer, vector(packetBytes)"
vector 247 Scenario.node[13].udp packetReceived:vector(packetBytes) ETV
attr interpolationmode none
attr source packetReceived
attr title "packets received, vector(packetBytes)"
vector 248 Scenario.node[13].udp passedUpPk:vector(count) ETV
attr interpolationmode none
attr source packetSentToUpper
attr title "packets passed up, vector(count)"
vector 249 Scenario.node[13].app[0] packetReceived:vector(packetBytes) ETV
attr interpolationmode none
attr source packetReceived
attr title "packets received, vector(packetBytes)"
vector 250 Scenario.node[13].app[0] throughput:vector ETV
attr source throughput(packetReceived)
attr title "throughput, vector"
attr unit bps
vector 251 Scenario.node[13].app[0] rcvdPkLifetime:vector ETV
attr interpolationmode none
attr source dataAge(packetReceived)
attr title "received packet lifetime, vector"
attr unit s
vector 252 Scenario.node[23].wlan[0].mac packetReceivedFromLower:vector(packetBytes) ETV
attr interpolationmode none
attr title "packets received from lower layer, vector(packetBytes)"
vector 253 Scenario.node[23].wlan[0].mac.dcf packetReceivedFromPeer:vector(packetBytes) ETV
attr interpolationmode none
attr title "packets received, vector(packetBytes)"
vector 254 Scenario.node[23].wlan[0].mac.dcf packetReceivedFromPeerMulticast:vector(packetBytes) ETV
attr interpolationmode none
attr source ieee80211Multicast(packetReceivedFromPeer)
attr title "packets received: multicast, vector(packetBytes)"
vector 255 Scenario.node[23].wlan[0].mac.dcf packetReceivedFromPeerWithoutRetry:vector(packetBytes) ETV
attr interpolationmode none
attr source ieee80211NotRetry(packetReceivedFromPeer)
attr title "packets received: without retry, vector(packetBytes)"
vector 256 Scenario.node[23].wlan[0].mac packetSentToUpper:vector(packetBytes) ETV
attr interpolationmode none
attr title "packets sent to upper layer, vector(packetBytes)"
vector 257 Scenario.node[23].udp packetReceived:vector(packetBytes) ETV
attr interpolationmode none
attr source packetReceived
attr title "packets received, vector(packetBytes)"
vector 258 Scenario.node[23].udp passedUpPk:vector(count) ETV
attr interpolationmode none
attr source packetSentToUpper
attr title "packets passed up, vector(count)"
vector 259 Scenario.node[23].app[0] packetReceived:vector(packetBytes) ETV
attr interpolationmode none
attr source packetReceived
attr title "packets received, vector(packetBytes)"
vector 260 Scenario.node[23].app[0] throughput:vector ETV
attr source throughput(packetReceived)
attr title "throughput, vector"
attr unit bps
vector 261 Scenario.node[23].app[0] rcvdPkLifetime:vector ETV
attr interpolationmode none
attr source dataAge(packetReceived)
attr title "received packet lifetime, vector"
attr unit s
vector 262 Scenario.node[16].wlan[0].mac packetReceivedFromLower:vector(packetBytes) ETV
attr interpolationmode none
attr title "packets received from lower layer, vector(packetBytes)"
vector 263 Scenario.node[16].wlan[0].mac.dcf packetReceivedFromPeer:vector(packetBytes) ETV
attr interpolationmode none
attr title "packets received, vector(packetBytes)"
vector 264 Scenario.node[16].wlan[0].mac.dcf packetReceivedFromPeerMulticast:vector(packetBytes) ETV
attr interpolationmode none
attr source ieee80211Multicast(packetReceivedFromPeer)
attr title "packets received: multicast, vector(packetBytes)"
vector 265 Scenario.node[16].wlan[0].mac.dcf packetReceivedFromPeerWithoutRetry:vector(packetBytes) ETV
attr interpolationmode none
attr source ieee80211NotRetry(packetReceivedFromPeer)
attr title "packets received: without retry, vector(packetBytes)"
vector 266 Scenario.node[16].wlan[0].mac packetSentToUpper:vector(packetBytes) ETV
attr interpolationmode none
attr title "packets sent to upper layer, vector(packetBytes)"
vector 267 Scenario.node[16].udp packetReceived:vector(packetBytes) ETV
attr interpolationmode none
attr source packetReceived
attr title "packets received, vector(packetBytes)"
vector 268 Scenario.node[16].udp passedUpPk:vector(count) ETV
attr interpolationmode none
attr source packetSentToUpper
attr title "packets passed up, vector(count)"
vector 269 Scenario.node[16].app[0] packetReceived:vector(packetBytes) ETV
attr interpolationmode none
attr source packetReceived
attr title "packets received, vector(packetBytes)"
vector 270 Scenario.node[16].app[0] throughput:vector ETV
attr source throughput(packetReceived)
attr title "throughput, vector"
attr unit bps
vector 271 Scenario.node[16].app[0] rcvdPkLifetime:vector ETV
attr interpolationmode none
attr source dataAge(packetReceived)
attr title "received packet lifetime, vector"
attr unit s
vector 272 Scenario.node[19].wlan[0].mac packetReceivedFromLower:vector(packetBytes) ETV
attr interpolationmode none
attr title "packets received from lower layer, vector(packetBytes)"
vector 273 Scenario.node[19].wlan[0].mac.dcf packetReceivedFromPeer:vector(packetBytes) ETV
attr interpolationmode none
attr title "packets received, vector(packetBytes)"
vector 274 Scenario.node[19].wlan[0].mac.dcf packetReceivedFromPeerMulticast:vector(packetBytes) ETV
attr interpolationmode none
attr source ieee80211Multicast(packetReceivedFromPeer)
attr title "packets received: multicast, vector(packetBytes)"
vector 275 Scenario.node[19].wlan[0].mac.dcf packetReceivedFromPeerWithoutRetry:vector(packetBytes) ETV
attr interpolationmode none
attr source ieee80211NotRetry(packetReceivedFromPeer)
attr title "packets received: without retry, vector(packetBytes)"
vector 276 Scenario.node[19].wlan[0].mac packetSentToUpper:vector(packetBytes) ETV
attr interpolationmode none
attr title "packets sent to upper layer, vector(packetBytes)"
vector 277 Scenario.node[19].udp packetReceived:vector(packetBytes) ETV
attr interpolationmode none
attr source packetReceived
attr title "packets received, vector(packetBytes)"
vector 278 Scenario.node[19].udp passedUpPk:vector(count) ETV
attr interpolationmode none
attr source packetSentToUpper
attr title "packets passed up, vector(count)"
vector 279 Scenario.node[19].app[0] packetReceived:vector(packetBytes) ETV
attr interpolationmode none
attr source packetReceived
attr title "packets received, vector(packetBytes)"
vector 280 Scenario.node[19].app[0] throughput:vector ETV
attr source throughput(packetReceived)
attr title "throughput, vector"
attr unit bps
vector 281 Scenario.node[19].app[0] rcvdPkLifetime:vector ETV
attr interpolationmode none
attr source dataAge(packetReceived)
attr title "received packet lifetime, vector"
attr unit s
vector 282 Scenario.node[21].wlan[0].mac packetReceivedFromLower:vector(packetBytes) ETV
attr interpolationmode none
attr title "packets received from lower layer, vector(packetBytes)"
vector 283 Scenario.node[21].wlan[0].mac.dcf packetReceivedFromPeer:vector(packetBytes) ETV
attr interpolationmode none
attr title "packets received, vector(packetBytes)"
vector 284 Scenario.node[21].wlan[0].mac.dcf packetReceivedFromPeerMulticast:vector(packetBytes) ETV
attr interpolationmode none
attr source ieee80211Multicast(packetReceivedFromPeer)
attr title "packets received: multicast, vector(packetBytes)"
vector 285 Scenario.node[21].wlan[0].mac.dcf packetReceivedFromPeerWithoutRetry:vector(packetBytes) ETV
attr interpolationmode none
attr source ieee80211NotRetry(packetReceivedFromPeer)
attr title "packets received: without retry, vector(packetBytes)"
vector 286 Scenario.node[21].wlan[0].mac packetSentToUpper:vector(packetBytes) ETV
attr interpolationmode none
attr title "packets sent to upper layer, vector(packetBytes)"
vector 287 Scenario.node[21].udp packetReceived:vector(packetBytes) ETV
attr interpolationmode none
attr source packetReceived
attr title "packets received, vector(packetBytes)"
vector 288 Scenario.node[21].udp passedUpPk:vector(count) ETV
attr interpolationmode none
attr source packetSentToUpper
attr title "packets passed up, vector(count)"
vector 289 Scenario.node[21].app[0] packetReceived:vector(packetBytes) ETV
attr interpolationmode none
attr source packetReceived
attr title "packets received, vector(packetBytes)"
vector 290 Scenario.node[21].app[0] throughput:vector ETV
attr source throughput(packetReceived)
attr title "throughput, vector"
attr unit bps
vector 291 Scenario.node[21].app[0] rcvdPkLifetime:vector ETV
attr interpolationmode none
attr source dataAge(packetReceived)
attr title "received packet lifetime, vector"
attr unit s
vector 292 Scenario.node[18].wlan[0].mac packetReceivedFromLower:vector(packetBytes) ETV
attr interpolationmode none
attr title "packets received from lower layer, vector(packetBytes)"
vector 293 Scenario.node[18].wlan[0].mac.dcf packetReceivedFromPeer:vector(packetBytes) ETV
attr interpolationmode none
attr title "packets received, vector(packetBytes)"
vector 294 Scenario.node[18].wlan[0].mac.dcf packetReceivedFromPeerMulticast:vector(packetBytes) ETV
attr interpolationmode none
attr source ieee80211Multicast(packetReceivedFromPeer)
attr title "packets received: multicast, vector(packetBytes)"
vector 295 Scenario.node[18].wlan[0].mac.dcf packetReceivedFromPeerWithoutRetry:vector(packetBytes) ETV
attr interpolationmode none
attr source ieee80211NotRetry(packetReceivedFromPeer)
attr title "packets received: without retry, vector(packetBytes)"
vector 296 Scenario.node[18].wlan[0].mac packetSentToUpper:vector(packetBytes) ETV
attr interpolationmode none
attr title "packets sent to upper layer, vector(packetBytes)"
vector 297 Scenario.node[18].udp packetReceived:vector(packetBytes) ETV
attr interpolationmode none
attr source packetReceived
attr title "packets received, vector(packetBytes)"
vector 298 Scenario.node[18].udp passedUpPk:vector(count) ETV
attr interpolationmode none
attr source packetSentToUpper
attr title "packets passed up, vector(count)"
vector 299 Scenario.node[18].app[0] packetReceived:vector(packetBytes) ETV
attr interpolationmode none
attr source packetReceived
attr title "packets received, vector(packetBytes)"
vector 300 Scenario.node[18].app[0] throughput:vector ETV
attr source throughput(packetReceived)
attr title "throughput, vector"
attr unit bps
vector 301 Scenario.node[18].app[0] rcvdPkLifetime:vector ETV
attr interpolationmode none
attr source dataAge(packetReceived)
attr title "received packet lifetime, vector"
attr unit s
vector 302 Scenario.node[17].wlan[0].mac packetReceivedFromLower:vector(packetBytes) ETV
attr interpolationmode none
attr title "packets received from lower layer, vector(packetBytes)"
vector 303 Scenario.node[17].wlan[0].mac.dcf packetReceivedFromPeer:vector(packetBytes) ETV
attr interpolationmode none
attr title "packets received, vector(packetBytes)"
vector 304 Scenario.node[17].wlan[0].mac.dcf packetReceivedFromPeerMulticast:vector(packetBytes) ETV
attr interpolationmode none
attr source ieee80211Multicast(packetReceivedFromPeer)
attr title "packets received: multicast, vector(packetBytes)"
vector 305 Scenario.node[17].wlan[0].mac.dcf packetReceivedFromPeerWithoutRetry:vector(packetBytes) ETV
attr interpolationmode none
attr source ieee80211NotRetry(packetReceivedFromPeer)
attr title "packets received: without retry, vector(packetBytes)"
vector 306 Scenario.node[17].wlan[0].mac packetSentToUpper:vector(packetBytes) ETV
attr interpolationmode none
attr title "packets sent to upper layer, vector(packetBytes)"
vector 307 Scenario.node[17].udp packetReceived:vector(packetBytes) ETV
attr interpolationmode none
attr source packetReceived
attr title "packets received, vector(packetBytes)"
vector 308 Scenario.node[17].udp passedUpPk:vector(count) ETV
attr interpolationmode none
attr source packetSentToUpper
attr title "packets passed up, vector(count)"
vector 309 Scenario.node[17].app[0] packetReceived:vector(packetBytes) ETV
attr interpolationmode none
attr source packetReceived
attr title "packets received, vector(packetBytes)"
vector 310 Scenario.node[17].app[0] throughput:vector ETV
attr source throughput(packetReceived)
attr title "throughput, vector"
attr unit bps
vector 311 Scenario.node[17].app[0] rcvdPkLifetime:vector ETV
attr interpolationmode none
attr source dataAge(packetReceived)
attr title "received packet lifetime, vector"
attr unit s
vector 312 Scenario.node[24].wlan[0].radio radioMode:vector ETV
attr interpolationmode sample-hold
attr source radioModeChanged
attr title "Radio mode, vector"
vector 313 Scenario.node[24].wlan[0].radio radioChannel:vector ETV
attr interpolationmode sample-hold
attr source radioChannelChanged
attr title "Radio channel, vector"
vector 314 Scenario.node[24].wlan[0].radio receptionState:vector ETV
attr interpolationmode sample-hold
attr source receptionStateChanged
attr title "Radio reception state, vector"
vector 315 Scenario.node[24].wlan[0].mac.dcf.recoveryProcedure contentionWindowChanged:vector ETV
attr interpolationmode sample-hold
attr title "contention window, vector"
vector 316 Scenario.node[25].wlan[0].radio radioMode:vector ETV
attr interpolationmode sample-hold
attr source radioModeChanged
attr title "Radio mode, vector"
vector 317 Scenario.node[25].wlan[0].radio radioChannel:vector ETV
attr interpolationmode sample-hold
attr source radioChannelChanged
attr title "Radio channel, vector"
vector 318 Scenario.node[25].wlan[0].radio receptionState:vector ETV
attr interpolationmode sample-hold
attr source receptionStateChanged
attr title "Radio reception state, vector"
vector 319 Scenario.node[25].wlan[0].mac.dcf.recoveryProcedure contentionWindowChanged:vector ETV
attr interpolationmode sample-hold
attr title "contention window, vector"
vector 320 Scenario.node[26].wlan[0].radio radioMode:vector ETV
attr interpolationmode sample-hold
attr source radioModeChanged
attr title "Radio mode, vector"
vector 321 Scenario.node[26].wlan[0].radio radioChannel:vector ETV
attr interpolationmode sample-hold
attr source radioChannelChanged
attr title "Radio channel, vector"
vector 322 Scenario.node[26].wlan[0].radio receptionState:vector ETV
attr interpolationmode sample-hold
attr source receptionStateChanged
attr title "Radio reception state, vector"
vector 323 Scenario.node[26].wlan[0].mac.dcf.recoveryProcedure contentionWindowChanged:vector ETV
attr interpolationmode sample-hold
attr title "contention window, vector"
vector 324 Scenario.node[27].wlan[0].radio radioMode:vector ETV
attr interpolationmode sample-hold
attr source radioModeChanged
attr title "Radio mode, vector"
vector 325 Scenario.node[27].wlan[0].radio radioChannel:vector ETV
attr interpolationmode sample-hold
attr source radioChannelChanged
attr title "Radio channel, vector"
vector 326 Scenario.node[27].wlan[0].radio receptionState:vector ETV
attr interpolationmode sample-hold
attr source receptionStateChanged
attr title "Radio reception state, vector"
vector 327 Scenario.node[27].wlan[0].mac.dcf.recoveryProcedure contentionWindowChanged:vector ETV
attr interpolationmode sample-hold
attr title "contention window, vector"
vector 328 Scenario.node[28].wlan[0].radio radioMode:vector ETV
attr interpolationmode sample-hold
attr source radioModeChanged
attr title "Radio mode, vector"
vector 329 Scenario.node[28].wlan[0].radio radioChannel:vector ETV
attr interpolationmode sample-hold
attr source radioChannelChanged
attr title "Radio channel, vector"
vector 330 Scenario.node[28].wlan[0].radio receptionState:vector ETV
attr interpolationmode sample-hold
attr source receptionStateChanged
attr title "Radio reception state, vector"
vector 331 Scenario.node[28].wlan[0].mac.dcf.recoveryProcedure contentionWindowChanged:vector ETV
attr interpolationmode sample-hold
attr title "contention window, vector"
vector 332 Scenario.node[29].wlan[0].radio radioMode:vector ETV
attr interpolationmode sample-hold
attr source radioModeChanged
attr title "Radio mode, vector"
vector 333 Scenario.node[29].wlan[0].radio radioChannel:vector ETV
attr interpolationmode sample-hold
attr source radioChannelChanged
attr title "Radio channel, vector"
vector 334 Scenario.node[29].wlan[0].radio receptionState:vector ETV
attr interpolationmode sample-hold
attr source receptionStateChanged
attr title "Radio reception state, vector"
vector 335 Scenario.node[29].wlan[0].mac.dcf.recoveryProcedure contentionWindowChanged:vector ETV
attr interpolationmode sample-hold
attr title "contention window, vector"
vector 336 Scenario.node[26].wlan[0].mac packetReceivedFromLower:vector(packetBytes) ETV
attr interpolationmode none
attr title "packets received from lower layer, vector(packetBytes)"
vector 337 Scenario.node[26].wlan[0].mac.dcf packetReceivedFromPeer:vector(packetBytes) ETV
attr interpolationmode none
attr title "packets received, vector(packetBytes)"
vector 338 Scenario.node[26].wlan[0].mac.dcf packetReceivedFromPeerMulticast:vector(packetBytes) ETV
attr interpolationmode none
attr source ieee80211Multicast(packetReceivedFromPeer)
attr title "packets received: multicast, vector(packetBytes)"
vector 339 Scenario.node[26].wlan[0].mac.dcf packetReceivedFromPeerWithoutRetry:vector(packetBytes) ETV
attr interpolationmode none
attr source ieee80211NotRetry(packetReceivedFromPeer)
attr title "packets received: without retry, vector(packetBytes)"
vector 340 Scenario.node[26].wlan[0].mac packetSentToUpper:vector(packetBytes) ETV
attr interpolationmode none
attr title "packets sent to upper layer, vector(packetBytes)"
vector 341 Scenario.node[26].udp packetReceived:vector(packetBytes) ETV
attr interpolationmode none
attr source packetReceived
attr title "packets received, vector(packetBytes)"
vector 342 Scenario.node[26].udp passedUpPk:vector(count) ETV
attr interpolationmode none
attr source packetSentToUpper
attr title "packets passed up, vector(count)"
vector 343 Scenario.node[26].app[0] packetReceived:vector(packetBytes) ETV
attr interpolationmode none
attr source packetReceived
attr title "packets received, vector(packetBytes)"
vector 344 Scenario.node[26].app[0] throughput:vector ETV
attr source throughput(packetReceived)
attr title "throughput, vector"
attr unit bps
vector 345 Scenario.node[26].app[0] rcvdPkLifetime:vector ETV
attr interpolationmode none
attr source dataAge(packetReceived)
attr title "received packet lifetime, vector"
attr unit s
vector 346 Scenario.node[24].wlan[0].mac packetReceivedFromLower:vector(packetBytes) ETV
attr interpolationmode none
attr title "packets received from lower layer, vector(packetBytes)"
vector 347 Scenario.node[24].wlan[0].mac.dcf packetReceivedFromPeer:vector(packetBytes) ETV
attr interpolationmode none
attr title "packets received, vector(packetBytes)"
vector 348 Scenario.node[24].wlan[0].mac.dcf packetReceivedFromPeerMulticast:vector(packetBytes) ETV
attr interpolationmode none
attr source ieee80211Multicast(packetReceivedFromPeer)
attr title "packets received: multicast, vector(packetBytes)"
vector 349 Scenario.node[24].wlan[0].mac.dcf packetReceivedFromPeerWithoutRetry:vector(packetBytes) ETV
attr interpolationmode none
attr source ieee80211NotRetry(packetReceivedFromPeer)
attr title "packets received: without retry, vector(packetBytes)"
vector 350 Scenario.node[24].wlan[0].mac packetSentToUpper:vector(packetBytes) ETV
attr interpolationmode none
attr title "packets sent to upper layer, vector(packetBytes)"
vector 351 Scenario.node[24].udp packetReceived:vector(packetBytes) ETV
attr interpolationmode none
attr source packetReceived
attr title "packets received, vector(packetBytes)"
vector 352 Scenario.node[24].udp passedUpPk:vector(count) ETV
attr interpolationmode none
attr source packetSentToUpper
attr title "packets passed up, vector(count)"
vector 353 Scenario.node[24].app[0] packetReceived:vector(packetBytes) ETV
attr interpolationmode none
attr source packetReceived
attr title "packets received, vector(packetBytes)"
vector 354 Scenario.node[24].app[0] throughput:vector ETV
attr source throughput(packetReceived)
attr title "throughput, vector"
attr unit bps
vector 355 Scenario.node[24].app[0] rcvdPkLifetime:vector ETV
attr interpolationmode none
attr source dataAge(packetReceived)
attr title "received packet lifetime, vector"
attr unit s
vector 356 Scenario.node[29].wlan[0].mac packetReceivedFromLower:vector(packetBytes) ETV
attr interpolationmode none
attr title "packets received from lower layer, vector(packetBytes)"
vector 357 Scenario.node[29].wlan[0].mac.dcf packetReceivedFromPeer:vector(packetBytes) ETV
attr interpolationmode none
attr title "packets received, vector(packetBytes)"
vector 358 Scenario.node[29].wlan[0].mac.dcf packetReceivedFromPeerMulticast:vector(packetBytes) ETV
attr interpolationmode none
attr source ieee80211Multicast(packetReceivedFromPeer)
attr title "packets received: multicast, vector(packetBytes)"
vector 359 Scenario.node[29].wlan[0].mac.dcf packetReceivedFromPeerWithoutRetry:vector(packetBytes) ETV
attr interpolationmode none
attr source ieee80211NotRetry(packetReceivedFromPeer)
attr title "packets received: without retry, vector(packetBytes)"
vector 360 Scenario.node[29].wlan[0].mac packetSentToUpper:vector(packetBytes) ETV
attr interpolationmode none
attr title "packets sent to upper layer, vector(packetBytes)"
vector 361 Scenario.node[29].udp packetReceived:vector(packetBytes) ETV
attr interpolationmode none
attr source packetReceived
attr title "packets received, vector(packetBytes)"
vector 362 Scenario.node[29].udp passedUpPk:vector(count) ETV
attr interpolationmode none
attr source packetSentToUpper
attr title "packets passed up, vector(count)"
vector 363 Scenario.node[29].app[0] packetReceived:vector(packetBytes) ETV
attr interpolationmode none
attr source packetReceived
attr title "packets received, vector(packetBytes)"
vector 364 Scenario.node[29].app[0] throughput:vector ETV
attr source throughput(packetReceived)
attr title "throughput, vector"
attr unit bps
vector 365 Scenario.node[29].app[0] rcvdPkLifetime:vector ETV
attr interpolationmode none
attr source dataAge(packetReceived)
attr title "received packet lifetime, vector"
attr unit s
vector 366 Scenario.node[28].wlan[0].mac packetReceivedFromLower:vector(packetBytes) ETV
attr interpolationmode none
attr title "packets received from lower layer, vector(packetBytes)"
vector 367 Scenario.node[28].wlan[0].mac.dcf packetReceivedFromPeer:vector(packetBytes) ETV
attr interpolationmode none
attr title "packets received, vector(packetBytes)"
vector 368 Scenario.node[28].wlan[0].mac.dcf packetReceivedFromPeerMulticast:vector(packetBytes) ETV
attr interpolationmode none
attr source ieee80211Multicast(packetReceivedFromPeer)
attr title "packets received: multicast, vector(packetBytes)"
vector 369 Scenario.node[28].wlan[0].mac.dcf packetReceivedFromPeerWithoutRetry:vector(packetBytes) ETV
attr interpolationmode none
attr source ieee80211NotRetry(packetReceivedFromPeer)
attr title "packets received: without retry, vector(packetBytes)"
vector 370 Scenario.node[28].wlan[0].mac packetSentToUpper:vector(packetBytes) ETV
attr interpolationmode none
attr title "packets sent to upper layer, vector(packetBytes)"
vector 371 Scenario.node[28].udp packetReceived:vector(packetBytes) ETV
attr interpolationmode none
attr source packetReceived
attr title "packets received, vector(packetBytes)"
vector 372 Scenario.node[28].udp passedUpPk:vector(count) ETV
attr interpolationmode none
attr source packetSentToUpper
attr title "packets passed up, vector(count)"
vector 373 Scenario.node[28].app[0] packetReceived:vector(packetBytes) ETV
attr interpolationmode none
attr source packetReceived
attr title "packets received, vector(packetBytes)"
vector 374 Scenario.node[28].app[0] throughput:vector ETV
attr source throughput(packetReceived)
attr title "throughput, vector"
attr unit bps
vector 375 Scenario.node[28].app[0] rcvdPkLifetime:vector ETV
attr interpolationmode none
attr source dataAge(packetReceived)
attr title "received packet lifetime, vector"
attr unit s
vector 376 Scenario.node[27].wlan[0].mac packetReceivedFromLower:vector(packetBytes) ETV
attr interpolationmode none
attr title "packets received from lower layer, vector(packetBytes)"
vector 377 Scenario.node[27].wlan[0].mac.dcf packetReceivedFromPeer:vector(packetBytes) ETV
attr interpolationmode none
attr title "packets received, vector(packetBytes)"
vector 378 Scenario.node[27].wlan[0].mac.dcf packetReceivedFromPeerMulticast:vector(packetBytes) ETV
attr interpolationmode none
attr source ieee80211Multicast(packetReceivedFromPeer)
attr title "packets received: multicast, vector(packetBytes)"
vector 379 Scenario.node[27].wlan[0].mac.dcf packetReceivedFromPeerWithoutRetry:vector(packetBytes) ETV
attr interpolationmode none
attr source ieee80211NotRetry(packetReceivedFromPeer)
attr title "packets received: without retry, vector(packetBytes)"
vector 380 Scenario.node[27].wlan[0].mac packetSentToUpper:vector(packetBytes) ETV
attr interpolationmode none
attr title "packets sent to upper layer, vector(packetBytes)"
vector 381 Scenario.node[27].udp packetReceived:vector(packetBytes) ETV
attr interpolationmode none
attr source packetReceived
attr title "packets received, vector(packetBytes)"
vector 382 Scenario.node[27].udp passedUpPk:vector(count) ETV
attr interpolationmode none
attr source packetSentToUpper
attr title "packets passed up, vector(count)"
vector 383 Scenario.node[27].app[0] packetReceived:vector(packetBytes) ETV
attr interpolationmode none
attr source packetReceived
attr title "packets received, vector(packetBytes)"
vector 384 Scenario.node[27].app[0] throughput:vector ETV
attr source throughput(packetReceived)
attr title "throughput, vector"
attr unit bps
vector 385 Scenario.node[27].app[0] rcvdPkLifetime:vector ETV
attr interpolationmode none
attr source dataAge(packetReceived)
attr title "received packet lifetime, vector"
attr unit s
vector 386 Scenario.node[25].wlan[0].mac packetReceivedFromLower:vector(packetBytes) ETV
attr interpolationmode none
attr title "packets received from lower layer, vector(packetBytes)"
vector 387 Scenario.node[25].wlan[0].mac.dcf packetReceivedFromPeer:vector(packetBytes) ETV
attr interpolationmode none
attr title "packets received, vector(packetBytes)"
vector 388 Scenario.node[25].wlan[0].mac.dcf packetReceivedFromPeerMulticast:vector(packetBytes) ETV
attr interpolationmode none
attr source ieee80211Multicast(packetReceivedFromPeer)
attr title "packets received: multicast, vector(packetBytes)"
vector 389 Scenario.node[25].wlan[0].mac.dcf packetReceivedFromPeerWithoutRetry:vector(packetBytes) ETV
attr interpolationmode none
attr source ieee80211NotRetry(packetReceivedFromPeer)
attr title "packets received: without retry, vector(packetBytes)"
vector 390 Scenario.node[25].wlan[0].mac packetSentToUpper:vector(packetBytes) ETV
attr interpolationmode none
attr title "packets sent to upper layer, vector(packetBytes)"
vector 391 Scenario.node[25].udp packetReceived:vector(packetBytes) ETV
attr interpolationmode none
attr source packetReceived
attr title "packets received, vector(packetBytes)"
vector 392 Scenario.node[25].udp passedUpPk:vector(count) ETV
attr interpolationmode none
attr source packetSentToUpper
attr title "packets passed up, vector(count)"
vector 393 Scenario.node[25].app[0] packetReceived:vector(packetBytes) ETV
attr interpolationmode none
attr source packetReceived
attr title "packets received, vector(packetBytes)"
vector 394 Scenario.node[25].app[0] throughput:vector ETV
attr source throughput(packetReceived)
attr title "throughput, vector"
attr unit bps
vector 395 Scenario.node[25].app[0] rcvdPkLifetime:vector ETV
attr interpolationmode none
attr source dataAge(packetReceived)
attr title "received packet lifetime, vector"
attr unit s
vector 396 Scenario.node[20].wlan[0].mac packetReceivedFromLower:vector(packetBytes) ETV
attr interpolationmode none
attr title "packets received from lower layer, vector(packetBytes)"
vector 397 Scenario.node[20].wlan[0].mac.dcf packetReceivedFromPeer:vector(packetBytes) ETV
attr interpolationmode none
attr title "packets received, vector(packetBytes)"
vector 398 Scenario.node[20].wlan[0].mac.dcf packetReceivedFromPeerMulticast:vector(packetBytes) ETV
attr interpolationmode none
attr source ieee80211Multicast(packetReceivedFromPeer)
attr title "packets received: multicast, vector(packetBytes)"
vector 399 Scenario.node[20].wlan[0].mac.dcf packetReceivedFromPeerWithoutRetry:vector(packetBytes) ETV
attr interpolationmode none
attr source ieee80211NotRetry(packetReceivedFromPeer)
attr title "packets received: without retry, vector(packetBytes)"
vector 400 Scenario.node[20].wlan[0].mac packetSentToUpper:vector(packetBytes) ETV
attr interpolationmode none
attr title "packets sent to upper layer, vector(packetBytes)"
vector 401 Scenario.node[20].udp packetReceived:vector(packetBytes) ETV
attr interpolationmode none
attr source packetReceived
attr title "packets received, vector(packetBytes)"
vector 402 Scenario.node[20].udp passedUpPk:vector(count) ETV
attr interpolationmode none
attr source packetSentToUpper
attr title "packets passed up, vector(count)"
vector 403 Scenario.node[20].app[0] packetReceived:vector(packetBytes) ETV
attr interpolationmode none
attr source packetReceived
attr title "packets received, vector(packetBytes)"
vector 404 Scenario.node[20].app[0] throughput:vector ETV
attr source throughput(packetReceived)
attr title "throughput, vector"
attr unit bps
vector 405 Scenario.node[20].app[0] rcvdPkLifetime:vector ETV
attr interpolationmode none
attr source dataAge(packetReceived)
attr title "received packet lifetime, vector"
attr unit s
127	249	15.000152691043	158
127	553	25.000152856216	158
127	852	35.000152801815	158
131	249	15.000152691043	130
131	553	25.000152856216	130
131	852	35.000152801815	130
130	249	15.000152691043	158
130	553	25.000152856216	158
130	852	35.000152801815	158
129	249	15.000152691043	158
129	553	25.000152856216	158
129	852	35.000152801815	158
128	249	15.000152691043	158
128	553	25.000152856216	158
128	852	35.000152801815	158
7	15	1.1	15
6	15	1.1	1
6	209	15.000000691043	3
6	248	15.000152691043	1
6	448	25.000000856216	3
6	552	25.000152856216	1
6	721	35.000000801815	3
6	851	35.000152801815	1
4	15	1.1	0
4	15	1.1	0
4	15	1.1	2
5	15	1.1	3
132	252	15.000152691043	108
132	556	25.000152856216	108
132	855	35.000152801815	108
133	252	15.000152691043	1
133	556	25.000152856216	2
133	855	35.000152801815	3
136	253	15.000152691043	0.000152691043
136	557	25.000152856216	0.000152856216
136	856	35.000152801815	0.000152801815
135	253	0.1	0
[...]
404	1115	41.2	0
404	1115	41.3	0
404	1115	41.4	0
404	1115	41.5	0
404	1115	41.6	0
404	1115	41.7	0
404	1115	41.8	0
404	1115	41.9	0
404	1115	42	0
404	1115	42.1	0
404	1115	42.2	0
404	1115	42.3	0
404	1115	42.4	0
404	1115	42.5	0
404	1115	42.6	0
404	1115	42.7	0
404	1115	42.8	0
404	1115	42.9	0
404	1115	43	0
404	1115	43.1	0
404	1115	43.2	0
404	1115	43.3	0
404	1115	43.4	0
404	1115	43.5	0
404	1115	43.6	0
404	1115	43.7	0
404	1115	43.8	0
404	1115	43.9	0
404	1115	44	0
404	1115	44.1	0
404	1115	44.2	0
404	1115	44.3	0
404	1115	44.4	0
404	1115	44.5	0
404	1115	44.6	0
404	1115	44.7	0
404	1115	44.8	0
404	1115	44.9	0
404	1115	45	0
404	1357	45.1	8000
404	1357	45.2	0
404	1357	45.3	0
404	1357	45.4	0
404	1357	45.5	0
404	1357	45.6	0
404	1357	45.7	0
404	1357	45.8	0
404	1357	45.9	0
404	1357	46	0
404	1357	46.1	0
404	1357	46.2	0
404	1357	46.3	0
404	1357	46.4	0
404	1357	46.5	0
404	1357	46.6	0
404	1357	46.7	0
404	1357	46.8	0
404	1357	46.9	0
404	1357	47	0
404	1357	47.1	0
404	1357	47.2	0
404	1357	47.3	0
404	1357	47.4	0
404	1357	47.5	0
404	1357	47.6	0
404	1357	47.7	0
404	1357	47.8	0
404	1357	47.9	0
404	1357	48	0
404	1357	48.1	0
404	1357	48.2	0
404	1357	48.3	0
404	1357	48.4	0
404	1357	48.5	0
404	1357	48.6	0
404	1357	48.7	0
404	1357	48.8	0
404	1357	48.9	0
404	1357	49	0
404	1357	49.1	0
404	1357	49.2	0
404	1357	49.3	0
404	1357	49.4	0
404	1357	49.5	0
404	1357	49.6	0
404	1357	49.7	0
404	1357	49.8	0
404	1357	49.9	0
404	1357	50	0
404	1357	50.1	0
404	1357	50.2	0
404	1357	50.3	0
404	1357	50.4	0
404	1357	50.5	0
404	1357	50.6	0
404	1357	50.7	0
404	1357	50.8	0
404	1357	50.9	0
404	1357	51	0
404	1357	51.1	0
404	1357	51.2	0
404	1357	51.3	0
404	1357	51.4	0
404	1357	51.5	0
404	1357	51.6	0
404	1357	51.7	0
404	1357	51.8	0
404	1357	51.9	0
404	1357	52	0
404	1357	52.1	0
404	1357	52.2	0
404	1357	52.3	0
404	1357	52.4	0
404	1357	52.5	0
404	1357	52.6	0
404	1357	52.7	0
404	1357	52.8	0
404	1357	52.9	0
404	1357	53	0
404	1357	53.1	0
404	1357	53.2	0
404	1357	53.3	0
404	1357	53.4	0
404	1357	53.5	0
404	1357	53.6	0
404	1357	53.7	0
404	1357	53.8	0
404	1357	53.9	0
404	1357	54	0
404	1357	54.1	0
404	1357	54.2	0
404	1357	54.3	0
404	1357	54.4	0
404	1357	54.5	0
404	1357	54.6	0
404	1357	54.7	0
404	1357	54.8	0
404	1357	54.9	0
404	1357	55	0
404	1608	55.1	8000
404	1608	55.2	0
404	1608	55.3	0
404	1608	55.4	0
404	1608	55.5	0
404	1608	55.6	0
404	1608	55.7	0
404	1608	55.8	0
404	1608	55.9	0
404	1608	56	0
404	1608	56.1	0
404	1608	56.2	0
404	1608	56.3	0
404	1608	56.4	0
404	1608	56.5	0
404	1608	56.6	0
404	1608	56.7	0
404	1608	56.8	0
404	1608	56.9	0
404	1608	57	0
404	1608	57.1	0
404	1608	57.2	0
404	1608	57.3	0
404	1608	57.4	0
404	1608	57.5	0
404	1608	57.6	0
404	1608	57.7	0
404	1608	57.8	0
404	1608	57.9	0
404	1608	58	0
404	1608	58.1	0
404	1608	58.2	0
404	1608	58.3	0
404	1608	58.4	0
404	1608	58.5	0
404	1608	58.6	0
404	1608	58.7	0
404	1608	58.8	0
404	1608	58.9	0
404	1608	59	0
404	1608	59.1	0
404	1608	59.2	0
404	1608	59.3	0
404	1608	59.4	0
404	1608	59.5	0
404	1608	59.6	0
404	1608	59.7	0
404	1608	59.8	0
404	1608	59.9	0
404	1608	60	0
404	1608	60.1	0
404	1608	60.2	0
404	1608	60.3	0
404	1608	60.4	0
404	1608	60.5	0
404	1608	60.6	0
404	1608	60.7	0
404	1608	60.8	0
404	1608	60.9	0
404	1608	61	0
404	1608	61.1	0
404	1608	61.2	0
404	1608	61.3	0
404	1608	61.4	0
404	1608	61.5	0
404	1608	61.6	0
404	1608	61.7	0
404	1608	61.8	0
404	1608	61.9	0
404	1608	62	0
404	1608	62.1	0
404	1608	62.2	0
404	1608	62.3	0
404	1608	62.4	0
404	1608	62.5	0
404	1608	62.6	0
404	1608	62.7	0
404	1608	62.8	0
404	1608	62.9	0
404	1608	63	0
404	1608	63.1	0
404	1608	63.2	0
404	1608	63.3	0
404	1608	63.4	0
404	1608	63.5	0
404	1608	63.6	0
404	1608	63.7	0
404	1608	63.8	0
404	1608	63.9	0
404	1608	64	0
404	1608	64.1	0
404	1608	64.2	0
404	1608	64.3	0
404	1608	64.4	0
404	1608	64.5	0
404	1608	64.6	0
404	1608	64.7	0
404	1608	64.8	0
404	1608	64.9	0
404	1608	65	0
404	1846	65.1	8000
404	1846	65.2	0
404	1846	65.3	0
404	1846	65.4	0
404	1846	65.5	0
404	1846	65.6	0
404	1846	65.7	0
404	1846	65.8	0
404	1846	65.9	0
404	1846	66	0
404	1846	66.1	0
404	1846	66.2	0
404	1846	66.3	0
404	1846	66.4	0
404	1846	66.5	0
404	1846	66.6	0
404	1846	66.7	0
404	1846	66.8	0
404	1846	66.9	0
404	1846	67	0
404	1846	67.1	0
404	1846	67.2	0
404	1846	67.3	0
404	1846	67.4	0
404	1846	67.5	0
404	1846	67.6	0
404	1846	67.7	0
404	1846	67.8	0
404	1846	67.9	0
404	1846	68	0
404	1846	68.1	0
404	1846	68.2	0
404	1846	68.3	0
404	1846	68.4	0
404	1846	68.5	0
404	1846	68.6	0
404	1846	68.7	0
404	1846	68.8	0
404	1846	68.9	0
404	1846	69	0
404	1846	69.1	0
404	1846	69.2	0
404	1846	69.3	0
404	1846	69.4	0
404	1846	69.5	0
404	1846	69.6	0
404	1846	69.7	0
404	1846	69.8	0
404	1846	69.9	0
404	1846	70	0
404	1846	70.1	0
404	1846	70.2	0
404	1846	70.3	0
404	1846	70.4	0
404	1846	70.5	0
404	1846	70.6	0
404	1846	70.7	0
404	1846	70.8	0
404	1846	70.9	0
404	1846	71	0
404	1846	71.1	0
404	1846	71.2	0
404	1846	71.3	0
404	1846	71.4	0
404	1846	71.5	0
404	1846	71.6	0
404	1846	71.7	0
404	1846	71.8	0
404	1846	71.9	0
404	1846	72	0
404	1846	72.1	0
404	1846	72.2	0
404	1846	72.3	0
404	1846	72.4	0
404	1846	72.5	0
404	1846	72.6	0
404	1846	72.7	0
404	1846	72.8	0
404	1846	72.9	0
404	1846	73	0
404	1846	73.1	0
404	1846	73.2	0
404	1846	73.3	0
404	1846	73.4	0
404	1846	73.5	0
404	1846	73.6	0
404	1846	73.7	0
404	1846	73.8	0
404	1846	73.9	0
404	1846	74	0
404	1846	74.1	0
404	1846	74.2	0
404	1846	74.3	0
404	1846	74.4	0
404	1846	74.5	0
404	1846	74.6	0
404	1846	74.7	0
404	1846	74.8	0
404	1846	74.9	0
404	1846	75	0
404	1935	75.1	8000
404	1935	75.2	0
404	1935	75.3	0
404	1935	75.4	0
404	1935	75.5	0
404	1935	75.6	0
404	1935	75.7	0
404	1935	75.8	0
404	1935	75.9	0
404	1935	76	0
404	1935	76.1	0
404	1935	76.2	0
404	1935	76.3	0
404	1935	76.4	0
404	1935	76.5	0
404	1935	76.6	0
404	1935	76.7	0
404	1935	76.8	0
404	1935	76.9	0
404	1935	77	0
404	1935	77.1	0
404	1935	77.2	0
404	1935	77.3	0
404	1935	77.4	0
404	1935	77.5	0
404	1935	77.6	0
404	1935	77.7	0
404	1935	77.8	0
404	1935	77.9	0
404	1935	78	0
404	1935	78.1	0
404	1935	78.2	0
404	1935	78.3	0
404	1935	78.4	0
404	1935	78.5	0
404	1935	78.6	0
404	1935	78.7	0
404	1935	78.8	0
404	1935	78.9	0
404	1935	79	0
404	1935	79.1	0
404	1935	79.2	0
404	1935	79.3	0
404	1935	79.4	0
404	1935	79.5	0
404	1935	79.6	0
404	1935	79.7	0
404	1935	79.8	0
404	1935	79.9	0
404	1935	80	0
405	880	35.00015302667	0.00015302667
405	1115	45.000152648993	0.000152648993
405	1357	55.000152315851	0.000152315851
405	1608	65.000152293766	0.000152293766
405	1846	75.000152470912	0.000152470912
416	1159	45.000153016326	158
416	1401	55.000152806938	158
416	1634	65.000152715067	158
416	1866	75.000152743468	158
417	1159	45.000153016326	158
417	1401	55.000152806938	158
417	1634	65.000152715067	158
417	1866	75.000152743468	158
418	1159	45.000153016326	158
418	1401	55.000152806938	158
418	1634	65.000152715067	158
418	1866	75.000152743468	158
419	1159	45.000153016326	158
419	1401	55.000152806938	158
419	1634	65.000152715067	158
419	1866	75.000152743468	158
420	1159	45.000153016326	130
420	1401	55.000152806938	130
420	1634	65.000152715067	130
420	1866	75.000152743468	130
421	1162	45.000153016326	108
421	1404	55.000152806938	108
421	1637	65.000152715067	108
421	1869	75.000152743468	108
422	1162	45.000153016326	1
422	1404	55.000152806938	2
422	1637	65.000152715067	3
422	1869	75.000152743468	4
423	1163	45.000153016326	100
423	1405	55.000152806938	100
423	1638	65.000152715067	100
423	1870	75.000152743468	100
424	1163	0.1	0
424	1163	0.2	0
424	1163	0.3	0
424	1163	0.4	0
424	1163	0.5	0
424	1163	0.6	0
424	1163	0.7	0
424	1163	0.8	0
424	1163	0.9	0
424	1163	1	0
424	1163	1.1	0
424	1163	1.2	0
424	1163	1.3	0
424	1163	1.4	0
424	1163	1.5	0
424	1163	1.6	0
424	1163	1.7	0
424	1163	1.8	0
424	1163	1.9	0
424	1163	2	0
424	1163	2.1	0
424	1163	2.2	0
424	1163	2.3	0
424	1163	2.4	0
424	1163	2.5	0
424	1163	2.6	0
424	1163	2.7	0
424	1163	2.8	0
424	1163	2.9	0
424	1163	3	0
424	1163	3.1	0
424	1163	3.2	0
424	1163	3.3	0
424	1163	3.4	0
424	1163	3.5	0
424	1163	3.6	0
424	1163	3.7	0
424	1163	3.8	0
424	1163	3.9	0
424	1163	4	0
424	1163	4.1	0
424	1163	4.2	0
424	1163	4.3	0
424	1163	4.4	0
424	1163	4.5	0
424	1163	4.6	0
424	1163	4.7	0
424	1163	4.8	0
424	1163	4.9	0
424	1163	5	0
424	1163	5.1	0
424	1163	5.2	0
424	1163	5.3	0
424	1163	5.4	0
424	1163	5.5	0
424	1163	5.6	0
424	1163	5.7	0
424	1163	5.8	0
424	1163	5.9	0
424	1163	6	0
424	1163	6.1	0
424	1163	6.2	0
424	1163	6.3	0
424	1163	6.4	0
424	1163	6.5	0
424	1163	6.6	0
424	1163	6.7	0
424	1163	6.8	0
424	1163	6.9	0
424	1163	7	0
424	1163	7.1	0
424	1163	7.2	0
424	1163	7.3	0
424	1163	7.4	0
424	1163	7.5	0
424	1163	7.6	0
424	1163	7.7	0
424	1163	7.8	0
424	1163	7.9	0
424	1163	8	0
424	1163	8.1	0
424	1163	8.2	0
424	1163	8.3	0
424	1163	8.4	0
424	1163	8.5	0
424	1163	8.6	0
424	1163	8.7	0
424	1163	8.8	0
424	1163	8.9	0
424	1163	9	0
424	1163	9.1	0
424	1163	9.2	0
424	1163	9.3	0
424	1163	9.4	0
424	1163	9.5	0
424	1163	9.6	0
424	1163	9.7	0
424	1163	9.8	0
424	1163	9.9	0
424	1163	10	0
424	1163	10.1	0
424	1163	10.2	0
424	1163	10.3	0
424	1163	10.4	0
424	1163	10.5	0
424	1163	10.6	0
424	1163	10.7	0
424	1163	10.8	0
424	1163	10.9	0
424	1163	11	0
424	1163	11.1	0
424	1163	11.2	0
424	1163	11.3	0
424	1163	11.4	0
424	1163	11.5	0
424	1163	11.6	0
424	1163	11.7	0
424	1163	11.8	0
424	1163	11.9	0
424	1163	12	0
424	1163	12.1	0
424	1163	12.2	0
424	1163	12.3	0
424	1163	12.4	0
424	1163	12.5	0
424	1163	12.6	0
424	1163	12.7	0
424	1163	12.8	0
424	1163	12.9	0
424	1163	13	0
424	1163	13.1	0
424	1163	13.2	0
424	1163	13.3	0
424	1163	13.4	0
424	1163	13.5	0
424	1163	13.6	0
424	1163	13.7	0
424	1163	13.8	0
424	1163	13.9	0
424	1163	14	0
424	1163	14.1	0
424	1163	14.2	0
424	1163	14.3	0
424	1163	14.4	0
424	1163	14.5	0
424	1163	14.6	0
424	1163	14.7	0
424	1163	14.8	0
424	1163	14.9	0
424	1163	15	0
424	1163	15.1	0
424	1163	15.2	0
424	1163	15.3	0
424	1163	15.4	0
424	1163	15.5	0
424	1163	15.6	0
424	1163	15.7	0
424	1163	15.8	0
424	1163	15.9	0
424	1163	16	0
424	1163	16.1	0
424	1163	16.2	0
424	1163	16.3	0
424	1163	16.4	0
424	1163	16.5	0
424	1163	16.6	0
424	1163	16.7	0
424	1163	16.8	0
424	1163	16.9	0
424	1163	17	0
424	1163	17.1	0
424	1163	17.2	0
424	1163	17.3	0
424	1163	17.4	0
424	1163	17.5	0
424	1163	17.6	0
424	1163	17.7	0
424	1163	17.8	0
424	1163	17.9	0
424	1163	18	0
424	1163	18.1	0
424	1163	18.2	0
424	1163	18.3	0
424	1163	18.4	0
424	1163	18.5	0
424	1163	18.6	0
424	1163	18.7	0
424	1163	18.8	0
424	1163	18.9	0
424	1163	19	0
424	1163	19.1	0
424	1163	19.2	0
424	1163	19.3	0
424	1163	19.4	0
424	1163	19.5	0
424	1163	19.6	0
424	1163	19.7	0
424	1163	19.8	0
424	1163	19.9	0
424	1163	20	0
424	1163	20.1	0
424	1163	20.2	0
424	1163	20.3	0
424	1163	20.4	0
424	1163	20.5	0
424	1163	20.6	0
424	1163	20.7	0
424	1163	20.8	0
424	1163	20.9	0
424	1163	21	0
424	1163	21.1	0
424	1163	21.2	0
424	1163	21.3	0
424	1163	21.4	0
424	1163	21.5	0
424	1163	21.6	0
424	1163	21.7	0
424	1163	21.8	0
424	1163	21.9	0
424	1163	22	0
424	1163	22.1	0
424	1163	22.2	0
424	1163	22.3	0
424	1163	22.4	0
424	1163	22.5	0
424	1163	22.6	0
424	1163	22.7	0
424	1163	22.8	0
424	1163	22.9	0
424	1163	23	0
424	1163	23.1	0
424	1163	23.2	0
424	1163	23.3	0
424	1163	23.4	0
424	1163	23.5	0
424	1163	23.6	0
424	1163	23.7	0
424	1163	23.8	0
424	1163	23.9	0
424	1163	24	0
424	1163	24.1	0
424	1163	24.2	0
424	1163	24.3	0
424	1163	24.4	0
424	1163	24.5	0
424	1163	24.6	0
424	1163	24.7	0
424	1163	24.8	0
424	1163	24.9	0
424	1163	25	0
424	1163	25.1	0
424	1163	25.2	0
424	1163	25.3	0
424	1163	25.4	0
424	1163	25.5	0
424	1163	25.6	0
424	1163	25.7	0
424	1163	25.8	0
424	1163	25.9	0
424	1163	26	0
424	1163	26.1	0
424	1163	26.2	0
424	1163	26.3	0
424	1163	26.4	0
424	1163	26.5	0
424	1163	26.6	0
424	1163	26.7	0
424	1163	26.8	0
424	1163	26.9	0
424	1163	27	0
424	1163	27.1	0
424	1163	27.2	0
424	1163	27.3	0
424	1163	27.4	0
424	1163	27.5	0
424	1163	27.6	0
424	1163	27.7	0
424	1163	27.8	0
424	1163	27.9	0
424	1163	28	0
424	1163	28.1	0
424	1163	28.2	0
424	1163	28.3	0
424	1163	28.4	0
424	1163	28.5	0
424	1163	28.6	0
424	1163	28.7	0
424	1163	28.8	0
424	1163	28.9	0
424	1163	29	0
424	1163	29.1	0
424	1163	29.2	0
424	1163	29.3	0
424	1163	29.4	0
424	1163	29.5	0
424	1163	29.6	0
424	1163	29.7	0
424	1163	29.8	0
424	1163	29.9	0
424	1163	30	0
424	1163	30.1	0
424	1163	30.2	0
424	1163	30.3	0
424	1163	30.4	0
424	1163	30.5	0
424	1163	30.6	0
424	1163	30.7	0
424	1163	30.8	0
424	1163	30.9	0
424	1163	31	0
424	1163	31.1	0
424	1163	31.2	0
424	1163	31.3	0
424	1163	31.4	0
424	1163	31.5	0
424	1163	31.6	0
424	1163	31.7	0
424	1163	31.8	0
424	1163	31.9	0
424	1163	32	0
424	1163	32.1	0
424	1163	32.2	0
424	1163	32.3	0
424	1163	32.4	0
424	1163	32.5	0
424	1163	32.6	0
424	1163	32.7	0
424	1163	32.8	0
424	1163	32.9	0
424	1163	33	0
424	1163	33.1	0
424	1163	33.2	0
424	1163	33.3	0
424	1163	33.4	0
424	1163	33.5	0
424	1163	33.6	0
424	1163	33.7	0
424	1163	33.8	0
424	1163	33.9	0
424	1163	34	0
424	1163	34.1	0
424	1163	34.2	0
424	1163	34.3	0
424	1163	34.4	0
424	1163	34.5	0
424	1163	34.6	0
424	1163	34.7	0
424	1163	34.8	0
424	1163	34.9	0
424	1163	35	0
424	1163	35.1	0
424	1163	35.2	0
424	1163	35.3	0
424	1163	35.4	0
424	1163	35.5	0
424	1163	35.6	0
424	1163	35.7	0
424	1163	35.8	0
424	1163	35.9	0
424	1163	36	0
424	1163	36.1	0
424	1163	36.2	0
424	1163	36.3	0
424	1163	36.4	0
424	1163	36.5	0
424	1163	36.6	0
424	1163	36.7	0
424	1163	36.8	0
424	1163	36.9	0
424	1163	37	0
424	1163	37.1	0
424	1163	37.2	0
424	1163	37.3	0
424	1163	37.4	0
424	1163	37.5	0
424	1163	37.6	0
424	1163	37.7	0
424	1163	37.8	0
424	1163	37.9	0
424	1163	38	0
424	1163	38.1	0
424	1163	38.2	0
424	1163	38.3	0
424	1163	38.4	0
424	1163	38.5	0
424	1163	38.6	0
424	1163	38.7	0
424	1163	38.8	0
424	1163	38.9	0
424	1163	39	0
424	1163	39.1	0
424	1163	39.2	0
424	1163	39.3	0
424	1163	39.4	0
424	1163	39.5	0
424	1163	39.6	0
424	1163	39.7	0
424	1163	39.8	0
424	1163	39.9	0
424	1163	40	0
424	1163	40.1	0
424	1163	40.2	0
424	1163	40.3	0
424	1163	40.4	0
424	1163	40.5	0
424	1163	40.6	0
424	1163	40.7	0
424	1163	40.8	0
424	1163	40.9	0
424	1163	41	0
424	1163	41.1	0
424	1163	41.2	0
424	1163	41.3	0
424	1163	41.4	0
424	1163	41.5	0
424	1163	41.6	0
424	1163	41.7	0
424	1163	41.8	0
424	1163	41.9	0
424	1163	42	0
424	1163	42.1	0
424	1163	42.2	0
424	1163	42.3	0
424	1163	42.4	0
424	1163	42.5	0
424	1163	42.6	0
424	1163	42.7	0
424	1163	42.8	0
424	1163	42.9	0
424	1163	43	0
424	1163	43.1	0
424	1163	43.2	0
424	1163	43.3	0
424	1163	43.4	0
424	1163	43.5	0
424	1163	43.6	0
424	1163	43.7	0
424	1163	43.8	0
424	1163	43.9	0
424	1163	44	0
424	1163	44.1	0
424	1163	44.2	0
424	1163	44.3	0
424	1163	44.4	0
424	1163	44.5	0
424	1163	44.6	0
424	1163	44.7	0
424	1163	44.8	0
424	1163	44.9	0
424	1163	45	0
424	1405	45.1	8000
424	1405	45.2	0
424	1405	45.3	0
424	1405	45.4	0
424	1405	45.5	0
424	1405	45.6	0
424	1405	45.7	0
424	1405	45.8	0
424	1405	45.9	0
424	1405	46	0
424	1405	46.1	0
424	1405	46.2	0
424	1405	46.3	0
424	1405	46.4	0
424	1405	46.5	0
424	1405	46.6	0
424	1405	46.7	0
424	1405	46.8	0
424	1405	46.9	0
424	1405	47	0
424	1405	47.1	0
424	1405	47.2	0
424	1405	47.3	0
424	1405	47.4	0
424	1405	47.5	0
424	1405	47.6	0
424	1405	47.7	0
424	1405	47.8	0
424	1405	47.9	0
424	1405	48	0
424	1405	48.1	0
424	1405	48.2	0
424	1405	48.3	0
424	1405	48.4	0
424	1405	48.5	0
424	1405	48.6	0
424	1405	48.7	0
424	1405	48.8	0
424	1405	48.9	0
424	1405	49	0
424	1405	49.1	0
424	1405	49.2	0
424	1405	49.3	0
424	1405	49.4	0
424	1405	49.5	0
424	1405	49.6	0
424	1405	49.7	0
424	1405	49.8	0
424	1405	49.9	0
424	1405	50	0
424	1405	50.1	0
424	1405	50.2	0
424	1405	50.3	0
424	1405	50.4	0
424	1405	50.5	0
424	1405	50.6	0
424	1405	50.7	0
424	1405	50.8	0
424	1405	50.9	0
424	1405	51	0
424	1405	51.1	0
424	1405	51.2	0
424	1405	51.3	0
424	1405	51.4	0
424	1405	51.5	0
424	1405	51.6	0
424	1405	51.7	0
424	1405	51.8	0
424	1405	51.9	0
424	1405	52	0
424	1405	52.1	0
424	1405	52.2	0
424	1405	52.3	0
424	1405	52.4	0
424	1405	52.5	0
424	1405	52.6	0
424	1405	52.7	0
424	1405	52.8	0
424	1405	52.9	0
424	1405	53	0
424	1405	53.1	0
424	1405	53.2	0
424	1405	53.3	0
424	1405	53.4	0
424	1405	53.5	0
424	1405	53.6	0
424	1405	53.7	0
424	1405	53.8	0
424	1405	53.9	0
424	1405	54	0
424	1405	54.1	0
424	1405	54.2	0
424	1405	54.3	0
424	1405	54.4	0
424	1405	54.5	0
424	1405	54.6	0
424	1405	54.7	0
424	1405	54.8	0
424	1405	54.9	0
424	1405	55	0
424	1638	55.1	8000
424	1638	55.2	0
424	1638	55.3	0
424	1638	55.4	0
424	1638	55.5	0
424	1638	55.6	0
424	1638	55.7	0
424	1638	55.8	0
424	1638	55.9	0
424	1638	56	0
424	1638	56.1	0
424	1638	56.2	0
424	1638	56.3	0
424	1638	56.4	0
424	1638	56.5	0
424	1638	56.6	0
424	1638	56.7	0
424	1638	56.8	0
424	1638	56.9	0
424	1638	57	0
424	1638	57.1	0
424	1638	57.2	0
424	1638	57.3	0
424	1638	57.4	0
424	1638	57.5	0
424	1638	57.6	0
424	1638	57.7	0
424	1638	57.8	0
424	1638	57.9	0
424	1638	58	0
424	1638	58.1	0
424	1638	58.2	0
424	1638	58.3	0
424	1638	58.4	0
424	1638	58.5	0
424	1638	58.6	0
424	1638	58.7	0
424	1638	58.8	0
424	1638	58.9	0
424	1638	59	0
424	1638	59.1	0
424	1638	59.2	0
424	1638	59.3	0
424	1638	59.4	0
424	1638	59.5	0
424	1638	59.6	0
424	1638	59.7	0
424	1638	59.8	0
424	1638	59.9	0
424	1638	60	0
424	1638	60.1	0
424	1638	60.2	0
424	1638	60.3	0
424	1638	60.4	0
424	1638	60.5	0
424	1638	60.6	0
424	1638	60.7	0
424	1638	60.8	0
424	1638	60.9	0
424	1638	61	0
424	1638	61.1	0
424	1638	61.2	0
424	1638	61.3	0
424	1638	61.4	0
424	1638	61.5	0
424	1638	61.6	0
424	1638	61.7	0
424	1638	61.8	0
424	1638	61.9	0
424	1638	62	0
424	1638	62.1	0
424	1638	62.2	0
424	1638	62.3	0
424	1638	62.4	0
424	1638	62.5	0
424	1638	62.6	0
424	1638	62.7	0
424	1638	62.8	0
424	1638	62.9	0
424	1638	63	0
424	1638	63.1	0
424	1638	63.2	0
424	1638	63.3	0
424	1638	63.4	0
424	1638	63.5	0
424	1638	63.6	0
424	1638	63.7	0
424	1638	63.8	0
424	1638	63.9	0
424	1638	64	0
424	1638	64.1	0
424	1638	64.2	0
424	1638	64.3	0
424	1638	64.4	0
424	1638	64.5	0
424	1638	64.6	0
424	1638	64.7	0
424	1638	64.8	0
424	1638	64.9	0
424	1638	65	0
424	1870	65.1	8000
424	1870	65.2	0
424	1870	65.3	0
424	1870	65.4	0
424	1870	65.5	0
424	1870	65.6	0
424	1870	65.7	0
424	1870	65.8	0
424	1870	65.9	0
424	1870	66	0
424	1870	66.1	0
424	1870	66.2	0
424	1870	66.3	0
424	1870	66.4	0
424	1870	66.5	0
424	1870	66.6	0
424	1870	66.7	0
424	1870	66.8	0
424	1870	66.9	0
424	1870	67	0
424	1870	67.1	0
424	1870	67.2	0
424	1870	67.3	0
424	1870	67.4	0
424	1870	67.5	0
424	1870	67.6	0
424	1870	67.7	0
424	1870	67.8	0
424	1870	67.9	0
424	1870	68	0
424	1870	68.1	0
424	1870	68.2	0
424	1870	68.3	0
424	1870	68.4	0
424	1870	68.5	0
424	1870	68.6	0
424	1870	68.7	0
424	1870	68.8	0
424	1870	68.9	0
424	1870	69	0
424	1870	69.1	0
424	1870	69.2	0
424	1870	69.3	0
424	1870	69.4	0
424	1870	69.5	0
424	1870	69.6	0
424	1870	69.7	0
424	1870	69.8	0
424	1870	69.9	0
424	1870	70	0
424	1870	70.1	0
424	1870	70.2	0
424	1870	70.3	0
424	1870	70.4	0
424	1870	70.5	0
424	1870	70.6	0
424	1870	70.7	0
424	1870	70.8	0
424	1870	70.9	0
424	1870	71	0
424	1870	71.1	0
424	1870	71.2	0
424	1870	71.3	0
424	1870	71.4	0
424	1870	71.5	0
424	1870	71.6	0
424	1870	71.7	0
424	1870	71.8	0
424	1870	71.9	0
424	1870	72	0
424	1870	72.1	0
424	1870	72.2	0
424	1870	72.3	0
424	1870	72.4	0
424	1870	72.5	0
424	1870	72.6	0
424	1870	72.7	0
424	1870	72.8	0
424	1870	72.9	0
424	1870	73	0
424	1870	73.1	0
424	1870	73.2	0
424	1870	73.3	0
424	1870	73.4	0
424	1870	73.5	0
424	1870	73.6	0
424	1870	73.7	0
424	1870	73.8	0
424	1870	73.9	0
424	1870	74	0
424	1870	74.1	0
424	1870	74.2	0
424	1870	74.3	0
424	1870	74.4	0
424	1870	74.5	0
424	1870	74.6	0
424	1870	74.7	0
424	1870	74.8	0
424	1870	74.9	0
424	1870	75	0
424	1935	75.1	8000
424	1935	75.2	0
424	1935	75.3	0
424	1935	75.4	0
424	1935	75.5	0
424	1935	75.6	0
424	1935	75.7	0
424	1935	75.8	0
424	1935	75.9	0
424	1935	76	0
424	1935	76.1	0
424	1935	76.2	0
424	1935	76.3	0
424	1935	76.4	0
424	1935	76.5	0
424	1935	76.6	0
424	1935	76.7	0
424	1935	76.8	0
424	1935	76.9	0
424	1935	77	0
424	1935	77.1	0
424	1935	77.2	0
424	1935	77.3	0
424	1935	77.4	0
424	1935	77.5	0
424	1935	77.6	0
424	1935	77.7	0
424	1935	77.8	0
424	1935	77.9	0
424	1935	78	0
424	1935	78.1	0
424	1935	78.2	0
424	1935	78.3	0
424	1935	78.4	0
424	1935	78.5	0
424	1935	78.6	0
424	1935	78.7	0
424	1935	78.8	0
424	1935	78.9	0
424	1935	79	0
424	1935	79.1	0
424	1935	79.2	0
424	1935	79.3	0
424	1935	79.4	0
424	1935	79.5	0
424	1935	79.6	0
424	1935	79.7	0
424	1935	79.8	0
424	1935	79.9	0
424	1935	80	0
425	1163	45.000153016326	0.000153016326
425	1405	55.000152806938	0.000152806938
425	1638	65.000152715067	0.000152715067
425	1870	75.000152743468	0.000152743468

