version 2
run General-0-20240229-22:42:30-16692
attr configname General
attr datetime 20240229-22:42:30
attr experiment General
attr inifile omnetpp.ini
attr iterationvars ""
attr iterationvarsf ""
attr measurement ""
attr network Scenario
attr processid 16692
attr repetition 0
attr replication #0
attr resultdir results
attr runnumber 0
attr seedset 0
param *.node[*].numApps 1
param *.node[*].app[0].typename "\"vanetquevedo.veins_inet.VeinsInetSampleApplication\""
param *.node[*].app[0].interface "\"wlan0\""
param *.node[*].wlan[0].opMode "\"p\""
param *.node[*].wlan[0].radio.typename "\"Ieee80211DimensionalRadio\""
param *.node[*].wlan[0].radio.bandName "\"5.9 GHz\""
param *.node[*].wlan[0].radio.channelNumber 3
param *.node[*].wlan[0].radio.transmitter.power 20mW
param *.node[*].wlan[0].radio.bandwidth "10 MHz"
param *.node[*].wlan[*].radio.antenna.mobility.typename "\"AttachedMobility\""
param *.node[*].wlan[*].radio.antenna.mobility.mobilityModule "\"^.^.^.^.mobility\""
param *.node[*].wlan[*].radio.antenna.mobility.offsetX -2.5m
param *.node[*].wlan[*].radio.antenna.mobility.offsetZ 1.5m
param *.node[*].wlan[*].radio.antenna.mobility.constraintAreaMinX 0m
param *.node[*].wlan[*].radio.antenna.mobility.constraintAreaMaxX 0m
param *.node[*].wlan[*].radio.antenna.mobility.constraintAreaMinY 0m
param *.node[*].wlan[*].radio.antenna.mobility.constraintAreaMaxY 0m
param *.node[*].wlan[*].radio.antenna.mobility.constraintAreaMinZ 0m
param *.node[*].wlan[*].radio.antenna.mobility.constraintAreaMaxZ 0m
param *.node[*].ipv4.configurator.typename "\"HostAutoConfigurator\""
param *.node[*].ipv4.configurator.interfaces "\"wlan0\""
param *.node[*].ipv4.configurator.mcastGroups "\"224.0.0.1\""
param **.ipv4.recordRoute true
param **.transportConfigurator.recordStats true
param *.node[*].mobility.typename "\"VeinsInetMobility\""
param *.manager.updateInterval 0.1s
param *.manager.updateInterval 0.1s
param *.manager.host "\"localhost\""
param *.manager.port 9999
param *.manager.autoShutdown true
param *.manager.launchConfig "xmldoc(\"centerquevedo.launchd.xml\")"
param *.manager.moduleType "\"vanetquevedo.veins_inet.VeinsInetCar\""

vector 0 Scenario.node[0].wlan[0].radio radioMode:vector ETV
attr interpolationmode sample-hold
attr source radioModeChanged
attr title "Radio mode, vector"
vector 1 Scenario.node[0].wlan[0].radio radioChannel:vector ETV
attr interpolationmode sample-hold
attr source radioChannelChanged
attr title "Radio channel, vector"
vector 2 Scenario.node[0].wlan[0].radio receptionState:vector ETV
attr interpolationmode sample-hold
attr source receptionStateChanged
attr title "Radio reception state, vector"
vector 3 Scenario.node[0].wlan[0].mac.dcf.recoveryProcedure contentionWindowChanged:vector ETV
attr interpolationmode sample-hold
attr title "contention window, vector"
vector 4 Scenario.node[1].wlan[0].radio radioMode:vector ETV
attr interpolationmode sample-hold
attr source radioModeChanged
attr title "Radio mode, vector"
vector 5 Scenario.node[1].wlan[0].radio radioChannel:vector ETV
attr interpolationmode sample-hold
attr source radioChannelChanged
attr title "Radio channel, vector"
vector 6 Scenario.node[1].wlan[0].radio receptionState:vector ETV
attr interpolationmode sample-hold
attr source receptionStateChanged
attr title "Radio reception state, vector"
vector 7 Scenario.node[1].wlan[0].mac.dcf.recoveryProcedure contentionWindowChanged:vector ETV
attr interpolationmode sample-hold
attr title "contention window, vector"
vector 8 Scenario.node[2].wlan[0].radio radioMode:vector ETV
attr interpolationmode sample-hold
attr source radioModeChanged
attr title "Radio mode, vector"
vector 9 Scenario.node[2].wlan[0].radio radioChannel:vector ETV
attr interpolationmode sample-hold
attr source radioChannelChanged
attr title "Radio channel, vector"
vector 10 Scenario.node[2].wlan[0].radio receptionState:vector ETV
attr interpolationmode sample-hold
attr source receptionStateChanged
attr title "Radio reception state, vector"
vector 11 Scenario.node[2].wlan[0].mac.dcf.recoveryProcedure contentionWindowChanged:vector ETV
attr interpolationmode sample-hold
attr title "contention window, vector"
vector 12 Scenario.node[3].wlan[0].radio radioMode:vector ETV
attr interpolationmode sample-hold
attr source radioModeChanged
attr title "Radio mode, vector"
vector 13 Scenario.node[3].wlan[0].radio radioChannel:vector ETV
attr interpolationmode sample-hold
attr source radioChannelChanged
attr title "Radio channel, vector"
vector 14 Scenario.node[3].wlan[0].radio receptionState:vector ETV
attr interpolationmode sample-hold
attr source receptionStateChanged
attr title "Radio reception state, vector"
vector 15 Scenario.node[3].wlan[0].mac.dcf.recoveryProcedure contentionWindowChanged:vector ETV
attr interpolationmode sample-hold
attr title "contention window, vector"
vector 16 Scenario.node[4].wlan[0].radio radioMode:vector ETV
attr interpolationmode sample-hold
attr source radioModeChanged
attr title "Radio mode, vector"
vector 17 Scenario.node[4].wlan[0].radio radioChannel:vector ETV
attr interpolationmode sample-hold
attr source radioChannelChanged
attr title "Radio channel, vector"
vector 18 Scenario.node[4].wlan[0].radio receptionState:vector ETV
attr interpolationmode sample-hold
attr source receptionStateChanged
attr title "Radio reception state, vector"
vector 19 Scenario.node[4].wlan[0].mac.dcf.recoveryProcedure contentionWindowChanged:vector ETV
attr interpolationmode sample-hold
attr title "contention window, vector"
vector 20 Scenario.node[5].wlan[0].radio radioMode:vector ETV
attr interpolationmode sample-hold
attr source radioModeChanged
attr title "Radio mode, vector"
vector 21 Scenario.node[5].wlan[0].radio radioChannel:vector ETV
attr interpolationmode sample-hold
attr source radioChannelChanged
attr title "Radio channel, vector"
vector 22 Scenario.node[5].wlan[0].radio receptionState:vector ETV
attr interpolationmode sample-hold
attr source receptionStateChanged
attr title "Radio reception state, vector"
vector 23 Scenario.node[5].wlan[0].mac.dcf.recoveryProcedure contentionWindowChanged:vector ETV
attr interpolationmode sample-hold
attr title "contention window, vector"
vector 24 Scenario.node[6].wlan[0].radio radioMode:vector ETV
attr interpolationmode sample-hold
attr source radioModeChanged
attr title "Radio mode, vector"
vector 25 Scenario.node[6].wlan[0].radio radioChannel:vector ETV
attr interpolationmode sample-hold
attr source radioChannelChanged
attr title "Radio channel, vector"
vector 26 Scenario.node[6].wlan[0].radio receptionState:vector ETV
attr interpolationmode sample-hold
attr source receptionStateChanged
attr title "Radio reception state, vector"
vector 27 Scenario.node[6].wlan[0].mac.dcf.recoveryProcedure contentionWindowChanged:vector ETV
attr interpolationmode sample-hold
attr title "contention window, vector"
vector 28 Scenario.node[7].wlan[0].radio radioMode:vector ETV
attr interpolationmode sample-hold
attr source radioModeChanged
attr title "Radio mode, vector"
vector 29 Scenario.node[7].wlan[0].radio radioChannel:vector ETV
attr interpolationmode sample-hold
attr source radioChannelChanged
attr title "Radio channel, vector"
vector 30 Scenario.node[7].wlan[0].radio receptionState:vector ETV
attr interpolationmode sample-hold
attr source receptionStateChanged
attr title "Radio reception state, vector"
vector 31 Scenario.node[7].wlan[0].mac.dcf.recoveryProcedure contentionWindowChanged:vector ETV
attr interpolationmode sample-hold
attr title "contention window, vector"
vector 32 Scenario.node[8].wlan[0].radio radioMode:vector ETV
attr interpolationmode sample-hold
attr source radioModeChanged
attr title "Radio mode, vector"
vector 33 Scenario.node[8].wlan[0].radio radioChannel:vector ETV
attr interpolationmode sample-hold
attr source radioChannelChanged
attr title "Radio channel, vector"
vector 34 Scenario.node[8].wlan[0].radio receptionState:vector ETV
attr interpolationmode sample-hold
attr source receptionStateChanged
attr title "Radio reception state, vector"
vector 35 Scenario.node[8].wlan[0].mac.dcf.recoveryProcedure contentionWindowChanged:vector ETV
attr interpolationmode sample-hold
attr title "contention window, vector"
vector 36 Scenario.node[9].wlan[0].radio radioMode:vector ETV
attr interpolationmode sample-hold
attr source radioModeChanged
attr title "Radio mode, vector"
vector 37 Scenario.node[9].wlan[0].radio radioChannel:vector ETV
attr interpolationmode sample-hold
attr source radioChannelChanged
attr title "Radio channel, vector"
vector 38 Scenario.node[9].wlan[0].radio receptionState:vector ETV
attr interpolationmode sample-hold
attr source receptionStateChanged
attr title "Radio reception state, vector"
vector 39 Scenario.node[9].wlan[0].mac.dcf.recoveryProcedure contentionWindowChanged:vector ETV
attr interpolationmode sample-hold
attr title "contention window, vector"
vector 40 Scenario.node[10].wlan[0].radio radioMode:vector ETV
attr interpolationmode sample-hold
attr source radioModeChanged
attr title "Radio mode, vector"
vector 41 Scenario.node[10].wlan[0].radio radioChannel:vector ETV
attr interpolationmode sample-hold
attr source radioChannelChanged
attr title "Radio channel, vector"
vector 42 Scenario.node[10].wlan[0].radio receptionState:vector ETV
attr interpolationmode sample-hold
attr source receptionStateChanged
attr title "Radio reception state, vector"
vector 43 Scenario.node[10].wlan[0].mac.dcf.recoveryProcedure contentionWindowChanged:vector ETV
attr interpolationmode sample-hold
attr title "contention window, vector"
vector 44 Scenario.node[11].wlan[0].radio radioMode:vector ETV
attr interpolationmode sample-hold
attr source radioModeChanged
attr title "Radio mode, vector"
vector 45 Scenario.node[11].wlan[0].radio radioChannel:vector ETV
attr interpolationmode sample-hold
attr source radioChannelChanged
attr title "Radio channel, vector"
vector 46 Scenario.node[11].wlan[0].radio receptionState:vector ETV
attr interpolationmode sample-hold
attr source receptionStateChanged
attr title "Radio reception state, vector"
vector 47 Scenario.node[11].wlan[0].mac.dcf.recoveryProcedure contentionWindowChanged:vector ETV
attr interpolationmode sample-hold
attr title "contention window, vector"
vector 48 Scenario.node[12].wlan[0].radio radioMode:vector ETV
attr interpolationmode sample-hold
attr source radioModeChanged
attr title "Radio mode, vector"
vector 49 Scenario.node[12].wlan[0].radio radioChannel:vector ETV
attr interpolationmode sample-hold
attr source radioChannelChanged
attr title "Radio channel, vector"
vector 50 Scenario.node[12].wlan[0].radio receptionState:vector ETV
attr interpolationmode sample-hold
attr source receptionStateChanged
attr title "Radio reception state, vector"
vector 51 Scenario.node[12].wlan[0].mac.dcf.recoveryProcedure contentionWindowChanged:vector ETV
attr interpolationmode sample-hold
attr title "contention window, vector"
vector 52 Scenario.node[13].wlan[0].radio radioMode:vector ETV
attr interpolationmode sample-hold
attr source radioModeChanged
attr title "Radio mode, vector"
vector 53 Scenario.node[13].wlan[0].radio radioChannel:vector ETV
attr interpolationmode sample-hold
attr source radioChannelChanged
attr title "Radio channel, vector"
vector 54 Scenario.node[13].wlan[0].radio receptionState:vector ETV
attr interpolationmode sample-hold
attr source receptionStateChanged
attr title "Radio reception state, vector"
vector 55 Scenario.node[13].wlan[0].mac.dcf.recoveryProcedure contentionWindowChanged:vector ETV
attr interpolationmode sample-hold
attr title "contention window, vector"
vector 56 Scenario.node[14].wlan[0].radio radioMode:vector ETV
attr interpolationmode sample-hold
attr source radioModeChanged
attr title "Radio mode, vector"
vector 57 Scenario.node[14].wlan[0].radio radioChannel:vector ETV
attr interpolationmode sample-hold
attr source radioChannelChanged
attr title "Radio channel, vector"
vector 58 Scenario.node[14].wlan[0].radio receptionState:vector ETV
attr interpolationmode sample-hold
attr source receptionStateChanged
attr title "Radio reception state, vector"
vector 59 Scenario.node[14].wlan[0].mac.dcf.recoveryProcedure contentionWindowChanged:vector ETV
attr interpolationmode sample-hold
attr title "contention window, vector"
vector 60 Scenario.node[15].wlan[0].radio radioMode:vector ETV
attr interpolationmode sample-hold
attr source radioModeChanged
attr title "Radio mode, vector"
vector 61 Scenario.node[15].wlan[0].radio radioChannel:vector ETV
attr interpolationmode sample-hold
attr source radioChannelChanged
attr title "Radio channel, vector"
vector 62 Scenario.node[15].wlan[0].radio receptionState:vector ETV
attr interpolationmode sample-hold
attr source receptionStateChanged
attr title "Radio reception state, vector"
vector 63 Scenario.node[15].wlan[0].mac.dcf.recoveryProcedure contentionWindowChanged:vector ETV
attr interpolationmode sample-hold
attr title "contention window, vector"
vector 64 Scenario.node[16].wlan[0].radio radioMode:vector ETV
attr interpolationmode sample-hold
attr source radioModeChanged
attr title "Radio mode, vector"
vector 65 Scenario.node[16].wlan[0].radio radioChannel:vector ETV
attr interpolationmode sample-hold
attr source radioChannelChanged
attr title "Radio channel, vector"
vector 66 Scenario.node[16].wlan[0].radio receptionState:vector ETV
attr interpolationmode sample-hold
attr source receptionStateChanged
attr title "Radio reception state, vector"
vector 67 Scenario.node[16].wlan[0].mac.dcf.recoveryProcedure contentionWindowChanged:vector ETV
attr interpolationmode sample-hold
attr title "contention window, vector"
vector 68 Scenario.node[17].wlan[0].radio radioMode:vector ETV
attr interpolationmode sample-hold
attr source radioModeChanged
attr title "Radio mode, vector"
vector 69 Scenario.node[17].wlan[0].radio radioChannel:vector ETV
attr interpolationmode sample-hold
attr source radioChannelChanged
attr title "Radio channel, vector"
vector 70 Scenario.node[17].wlan[0].radio receptionState:vector ETV
attr interpolationmode sample-hold
attr source receptionStateChanged
attr title "Radio reception state, vector"
vector 71 Scenario.node[17].wlan[0].mac.dcf.recoveryProcedure contentionWindowChanged:vector ETV
attr interpolationmode sample-hold
attr title "contention window, vector"
vector 72 Scenario.node[18].wlan[0].radio radioMode:vector ETV
attr interpolationmode sample-hold
attr source radioModeChanged
attr title "Radio mode, vector"
vector 73 Scenario.node[18].wlan[0].radio radioChannel:vector ETV
attr interpolationmode sample-hold
attr source radioChannelChanged
attr title "Radio channel, vector"
vector 74 Scenario.node[18].wlan[0].radio receptionState:vector ETV
attr interpolationmode sample-hold
attr source receptionStateChanged
attr title "Radio reception state, vector"
vector 75 Scenario.node[18].wlan[0].mac.dcf.recoveryProcedure contentionWindowChanged:vector ETV
attr interpolationmode sample-hold
attr title "contention window, vector"
vector 76 Scenario.node[19].wlan[0].radio radioMode:vector ETV
attr interpolationmode sample-hold
attr source radioModeChanged
attr title "Radio mode, vector"
vector 77 Scenario.node[19].wlan[0].radio radioChannel:vector ETV
attr interpolationmode sample-hold
attr source radioChannelChanged
attr title "Radio channel, vector"
vector 78 Scenario.node[19].wlan[0].radio receptionState:vector ETV
attr interpolationmode sample-hold
attr source receptionStateChanged
attr title "Radio reception state, vector"
vector 79 Scenario.node[19].wlan[0].mac.dcf.recoveryProcedure contentionWindowChanged:vector ETV
attr interpolationmode sample-hold
attr title "contention window, vector"
vector 80 Scenario.node[3].app[0] throughput:vector ETV
attr source throughput(packetReceived)
attr title "throughput, vector"
attr unit bps
15	41	3.1	15
14	41	3.1	1
12	41	3.1	0
12	41	3.1	0
12	41	3.1	2
13	41	3.1	3
80	262	0.1	0
80	262	0.2	0
80	262	0.3	0
80	262	0.4	0
80	262	0.5	0
80	262	0.6	0
80	262	0.7	0
80	262	0.8	0
80	262	0.9	0
80	262	1	0
80	262	1.1	0
80	262	1.2	0
80	262	1.3	0
80	262	1.4	0
80	262	1.5	0
80	262	1.6	0
80	262	1.7	0
80	262	1.8	0
80	262	1.9	0
80	262	2	0
80	262	2.1	0
80	262	2.2	0
80	262	2.3	0
80	262	2.4	0
80	262	2.5	0
80	262	2.6	0
80	262	2.7	0
80	262	2.8	0
80	262	2.9	0
80	262	3	0
80	262	3.1	0
80	262	3.2	0
80	262	3.3	0
80	262	3.4	0
80	262	3.5	0
80	262	3.6	0
80	262	3.7	0
80	262	3.8	0
80	262	3.9	0
80	262	4	0
80	262	4.1	0
80	262	4.2	0
80	262	4.3	0
80	262	4.4	0
80	262	4.5	0
80	262	4.6	0
80	262	4.7	0
80	262	4.8	0
80	262	4.9	0
80	262	5	0
80	262	5.1	0
80	262	5.2	0
80	262	5.3	0
80	262	5.4	0
80	262	5.5	0
80	262	5.6	0
80	262	5.7	0
80	262	5.8	0
80	262	5.9	0
80	262	6	0
80	262	6.1	0
80	262	6.2	0
80	262	6.3	0
80	262	6.4	0
80	262	6.5	0
80	262	6.6	0
80	262	6.7	0
80	262	6.8	0
80	262	6.9	0
80	262	7	0
80	262	7.1	0
80	262	7.2	0
80	262	7.3	0
80	262	7.4	0
80	262	7.5	0
80	262	7.6	0
80	262	7.7	0
80	262	7.8	0
80	262	7.9	0
80	262	8	0
80	262	8.1	0
80	262	8.2	0
80	262	8.3	0
80	262	8.4	0
80	262	8.5	0
80	262	8.6	0
80	262	8.7	0
80	262	8.8	0
80	262	8.9	0
80	262	9	0
80	262	9.1	0
80	262	9.2	0
80	262	9.3	0
80	262	9.4	0
80	262	9.5	0
80	262	9.6	0
80	262	9.7	0
80	262	9.8	0
80	262	9.9	0
80	262	10	0
80	262	10.1	0
80	262	10.2	0
80	262	10.3	0
80	262	10.4	0
80	262	10.5	0
80	262	10.6	0
80	262	10.7	0
80	262	10.8	0
80	262	10.9	0
80	262	11	0
80	262	11.1	0
80	262	11.2	0
80	262	11.3	0
80	262	11.4	0
80	262	11.5	0
80	262	11.6	0
80	262	11.7	0
80	262	11.8	0
80	262	11.9	0
80	262	12	0
80	262	12.1	0
80	262	12.2	0
80	262	12.3	0
80	262	12.4	0
80	262	12.5	0
80	262	12.6	0
80	262	12.7	0
80	262	12.8	0
80	262	12.9	0
80	262	13	0
80	262	13.1	0
80	262	13.2	0
80	262	13.3	0
80	262	13.4	0
80	262	13.5	0
80	262	13.6	0
80	262	13.7	0
80	262	13.8	0
80	262	13.9	0
80	262	14	0
80	262	14.1	0
80	262	14.2	0
80	262	14.3	0
80	262	14.4	0
80	262	14.5	0
80	262	14.6	0
80	262	14.7	0
80	262	14.8	0
80	262	14.9	0
80	262	15	0
80	262	15.1	0
80	262	15.2	0
80	262	15.3	0
80	262	15.4	0
80	262	15.5	0
80	262	15.6	0
80	262	15.7	0
80	262	15.8	0
80	262	15.9	0
80	262	16	0
80	262	16.1	0
80	262	16.2	0
80	262	16.3	0
80	262	16.4	0
80	262	16.5	0
80	262	16.6	0
80	262	16.7	0
80	262	16.8	0
80	262	16.9	0
80	262	17	0
80	262	17.1	0
80	262	17.2	0
80	262	17.3	0
80	262	17.4	0
80	262	17.5	0
80	262	17.6	0
80	262	17.7	0
80	262	17.8	0
80	262	17.9	0
80	262	18	0
80	262	18.1	0
80	262	18.2	0
80	262	18.3	0
80	262	18.4	0
80	262	18.5	0
80	262	18.6	0
80	262	18.7	0
80	262	18.8	0
80	262	18.9	0
80	262	19	0
80	262	19.1	0
80	262	19.2	0
80	262	19.3	0
80	262	19.4	0
80	262	19.5	0
80	262	19.6	0
80	262	19.7	0
80	262	19.8	0
80	262	19.9	0
80	262	20	0
80	262	20.1	0
vector 81 Scenario.node[20].wlan[0].radio radioMode:vector ETV
attr interpolationmode sample-hold
attr source radioModeChanged
attr title "Radio mode, vector"
vector 82 Scenario.node[20].wlan[0].radio radioChannel:vector ETV
attr interpolationmode sample-hold
attr source radioChannelChanged
attr title "Radio channel, vector"
vector 83 Scenario.node[20].wlan[0].radio receptionState:vector ETV
attr interpolationmode sample-hold
attr source receptionStateChanged
attr title "Radio reception state, vector"
vector 84 Scenario.node[20].wlan[0].mac.dcf.recoveryProcedure contentionWindowChanged:vector ETV
attr interpolationmode sample-hold
attr title "contention window, vector"
vector 85 Scenario.node[21].wlan[0].radio radioMode:vector ETV
attr interpolationmode sample-hold
attr source radioModeChanged
attr title "Radio mode, vector"
vector 86 Scenario.node[21].wlan[0].radio radioChannel:vector ETV
attr interpolationmode sample-hold
attr source radioChannelChanged
attr title "Radio channel, vector"
vector 87 Scenario.node[21].wlan[0].radio receptionState:vector ETV
attr interpolationmode sample-hold
attr source receptionStateChanged
attr title "Radio reception state, vector"
vector 88 Scenario.node[21].wlan[0].mac.dcf.recoveryProcedure contentionWindowChanged:vector ETV
attr interpolationmode sample-hold
attr title "contention window, vector"
vector 89 Scenario.node[22].wlan[0].radio radioMode:vector ETV
attr interpolationmode sample-hold
attr source radioModeChanged
attr title "Radio mode, vector"
vector 90 Scenario.node[22].wlan[0].radio radioChannel:vector ETV
attr interpolationmode sample-hold
attr source radioChannelChanged
attr title "Radio channel, vector"
vector 91 Scenario.node[22].wlan[0].radio receptionState:vector ETV
attr interpolationmode sample-hold
attr source receptionStateChanged
attr title "Radio reception state, vector"
vector 92 Scenario.node[22].wlan[0].mac.dcf.recoveryProcedure contentionWindowChanged:vector ETV
attr interpolationmode sample-hold
attr title "contention window, vector"
vector 93 Scenario.node[23].wlan[0].radio radioMode:vector ETV
attr interpolationmode sample-hold
attr source radioModeChanged
attr title "Radio mode, vector"
vector 94 Scenario.node[23].wlan[0].radio radioChannel:vector ETV
attr interpolationmode sample-hold
attr source radioChannelChanged
attr title "Radio channel, vector"
vector 95 Scenario.node[23].wlan[0].radio receptionState:vector ETV
attr interpolationmode sample-hold
attr source receptionStateChanged
attr title "Radio reception state, vector"
vector 96 Scenario.node[23].wlan[0].mac.dcf.recoveryProcedure contentionWindowChanged:vector ETV
attr interpolationmode sample-hold
attr title "contention window, vector"
vector 97 Scenario.node[24].wlan[0].radio radioMode:vector ETV
attr interpolationmode sample-hold
attr source radioModeChanged
attr title "Radio mode, vector"
vector 98 Scenario.node[24].wlan[0].radio radioChannel:vector ETV
attr interpolationmode sample-hold
attr source radioChannelChanged
attr title "Radio channel, vector"
vector 99 Scenario.node[24].wlan[0].radio receptionState:vector ETV
attr interpolationmode sample-hold
attr source receptionStateChanged
attr title "Radio reception state, vector"
vector 100 Scenario.node[24].wlan[0].mac.dcf.recoveryProcedure contentionWindowChanged:vector ETV
attr interpolationmode sample-hold
attr title "contention window, vector"
vector 101 Scenario.node[25].wlan[0].radio radioMode:vector ETV
attr interpolationmode sample-hold
attr source radioModeChanged
attr title "Radio mode, vector"
vector 102 Scenario.node[25].wlan[0].radio radioChannel:vector ETV
attr interpolationmode sample-hold
attr source radioChannelChanged
attr title "Radio channel, vector"
vector 103 Scenario.node[25].wlan[0].radio receptionState:vector ETV
attr interpolationmode sample-hold
attr source receptionStateChanged
attr title "Radio reception state, vector"
vector 104 Scenario.node[25].wlan[0].mac.dcf.recoveryProcedure contentionWindowChanged:vector ETV
attr interpolationmode sample-hold
attr title "contention window, vector"
vector 105 Scenario.node[26].wlan[0].radio radioMode:vector ETV
attr interpolationmode sample-hold
attr source radioModeChanged
attr title "Radio mode, vector"
vector 106 Scenario.node[26].wlan[0].radio radioChannel:vector ETV
attr interpolationmode sample-hold
attr source radioChannelChanged
attr title "Radio channel, vector"
vector 107 Scenario.node[26].wlan[0].radio receptionState:vector ETV
attr interpolationmode sample-hold
attr source receptionStateChanged
attr title "Radio reception state, vector"
vector 108 Scenario.node[26].wlan[0].mac.dcf.recoveryProcedure contentionWindowChanged:vector ETV
attr interpolationmode sample-hold
attr title "contention window, vector"
vector 109 Scenario.node[27].wlan[0].radio radioMode:vector ETV
attr interpolationmode sample-hold
attr source radioModeChanged
attr title "Radio mode, vector"
vector 110 Scenario.node[27].wlan[0].radio radioChannel:vector ETV
attr interpolationmode sample-hold
attr source radioChannelChanged
attr title "Radio channel, vector"
vector 111 Scenario.node[27].wlan[0].radio receptionState:vector ETV
attr interpolationmode sample-hold
attr source receptionStateChanged
attr title "Radio reception state, vector"
vector 112 Scenario.node[27].wlan[0].mac.dcf.recoveryProcedure contentionWindowChanged:vector ETV
attr interpolationmode sample-hold
attr title "contention window, vector"
vector 113 Scenario.node[28].wlan[0].radio radioMode:vector ETV
attr interpolationmode sample-hold
attr source radioModeChanged
attr title "Radio mode, vector"
vector 114 Scenario.node[28].wlan[0].radio radioChannel:vector ETV
attr interpolationmode sample-hold
attr source radioChannelChanged
attr title "Radio channel, vector"
vector 115 Scenario.node[28].wlan[0].radio receptionState:vector ETV
attr interpolationmode sample-hold
attr source receptionStateChanged
attr title "Radio reception state, vector"
vector 116 Scenario.node[28].wlan[0].mac.dcf.recoveryProcedure contentionWindowChanged:vector ETV
attr interpolationmode sample-hold
attr title "contention window, vector"
vector 117 Scenario.node[29].wlan[0].radio radioMode:vector ETV
attr interpolationmode sample-hold
attr source radioModeChanged
attr title "Radio mode, vector"
vector 118 Scenario.node[29].wlan[0].radio radioChannel:vector ETV
attr interpolationmode sample-hold
attr source radioChannelChanged
attr title "Radio channel, vector"
vector 119 Scenario.node[29].wlan[0].radio receptionState:vector ETV
attr interpolationmode sample-hold
attr source receptionStateChanged
attr title "Radio reception state, vector"
vector 120 Scenario.node[29].wlan[0].mac.dcf.recoveryProcedure contentionWindowChanged:vector ETV
attr interpolationmode sample-hold
attr title "contention window, vector"
vector 121 Scenario.node[30].wlan[0].radio radioMode:vector ETV
attr interpolationmode sample-hold
attr source radioModeChanged
attr title "Radio mode, vector"
vector 122 Scenario.node[30].wlan[0].radio radioChannel:vector ETV
attr interpolationmode sample-hold
attr source radioChannelChanged
attr title "Radio channel, vector"
vector 123 Scenario.node[30].wlan[0].radio receptionState:vector ETV
attr interpolationmode sample-hold
attr source receptionStateChanged
attr title "Radio reception state, vector"
vector 124 Scenario.node[30].wlan[0].mac.dcf.recoveryProcedure contentionWindowChanged:vector ETV
attr interpolationmode sample-hold
attr title "contention window, vector"
vector 125 Scenario.node[31].wlan[0].radio radioMode:vector ETV
attr interpolationmode sample-hold
attr source radioModeChanged
attr title "Radio mode, vector"
vector 126 Scenario.node[31].wlan[0].radio radioChannel:vector ETV
attr interpolationmode sample-hold
attr source radioChannelChanged
attr title "Radio channel, vector"
vector 127 Scenario.node[31].wlan[0].radio receptionState:vector ETV
attr interpolationmode sample-hold
attr source receptionStateChanged
attr title "Radio reception state, vector"
vector 128 Scenario.node[31].wlan[0].mac.dcf.recoveryProcedure contentionWindowChanged:vector ETV
attr interpolationmode sample-hold
attr title "contention window, vector"
vector 129 Scenario.node[32].wlan[0].radio radioMode:vector ETV
attr interpolationmode sample-hold
attr source radioModeChanged
attr title "Radio mode, vector"
vector 130 Scenario.node[32].wlan[0].radio radioChannel:vector ETV
attr interpolationmode sample-hold
attr source radioChannelChanged
attr title "Radio channel, vector"
vector 131 Scenario.node[32].wlan[0].radio receptionState:vector ETV
attr interpolationmode sample-hold
attr source receptionStateChanged
attr title "Radio reception state, vector"
vector 132 Scenario.node[32].wlan[0].mac.dcf.recoveryProcedure contentionWindowChanged:vector ETV
attr interpolationmode sample-hold
attr title "contention window, vector"
vector 133 Scenario.node[33].wlan[0].radio radioMode:vector ETV
attr interpolationmode sample-hold
attr source radioModeChanged
attr title "Radio mode, vector"
vector 134 Scenario.node[33].wlan[0].radio radioChannel:vector ETV
attr interpolationmode sample-hold
attr source radioChannelChanged
attr title "Radio channel, vector"
vector 135 Scenario.node[33].wlan[0].radio receptionState:vector ETV
attr interpolationmode sample-hold
attr source receptionStateChanged
attr title "Radio reception state, vector"
vector 136 Scenario.node[33].wlan[0].mac.dcf.recoveryProcedure contentionWindowChanged:vector ETV
attr interpolationmode sample-hold
attr title "contention window, vector"
vector 137 Scenario.node[34].wlan[0].radio radioMode:vector ETV
attr interpolationmode sample-hold
attr source radioModeChanged
attr title "Radio mode, vector"
vector 138 Scenario.node[34].wlan[0].radio radioChannel:vector ETV
attr interpolationmode sample-hold
attr source radioChannelChanged
attr title "Radio channel, vector"
vector 139 Scenario.node[34].wlan[0].radio receptionState:vector ETV
attr interpolationmode sample-hold
attr source receptionStateChanged
attr title "Radio reception state, vector"
vector 140 Scenario.node[34].wlan[0].mac.dcf.recoveryProcedure contentionWindowChanged:vector ETV
attr interpolationmode sample-hold
attr title "contention window, vector"
vector 141 Scenario.node[35].wlan[0].radio radioMode:vector ETV
attr interpolationmode sample-hold
attr source radioModeChanged
attr title "Radio mode, vector"
vector 142 Scenario.node[35].wlan[0].radio radioChannel:vector ETV
attr interpolationmode sample-hold
attr source radioChannelChanged
attr title "Radio channel, vector"
vector 143 Scenario.node[35].wlan[0].radio receptionState:vector ETV
attr interpolationmode sample-hold
attr source receptionStateChanged
attr title "Radio reception state, vector"
vector 144 Scenario.node[35].wlan[0].mac.dcf.recoveryProcedure contentionWindowChanged:vector ETV
attr interpolationmode sample-hold
attr title "contention window, vector"
vector 145 Scenario.node[36].wlan[0].radio radioMode:vector ETV
attr interpolationmode sample-hold
attr source radioModeChanged
attr title "Radio mode, vector"
vector 146 Scenario.node[36].wlan[0].radio radioChannel:vector ETV
attr interpolationmode sample-hold
attr source radioChannelChanged
attr title "Radio channel, vector"
vector 147 Scenario.node[36].wlan[0].radio receptionState:vector ETV
attr interpolationmode sample-hold
attr source receptionStateChanged
attr title "Radio reception state, vector"
vector 148 Scenario.node[36].wlan[0].mac.dcf.recoveryProcedure contentionWindowChanged:vector ETV
attr interpolationmode sample-hold
attr title "contention window, vector"
vector 149 Scenario.node[1].app[0] throughput:vector ETV
attr source throughput(packetReceived)
attr title "throughput, vector"
attr unit bps
7	15	1.1	15
6	15	1.1	1
4	15	1.1	0
4	15	1.1	0
4	15	1.1	2
5	15	1.1	3
149	483	0.1	0
149	483	0.2	0
149	483	0.3	0
149	483	0.4	0
149	483	0.5	0
149	483	0.6	0
149	483	0.7	0
149	483	0.8	0
149	483	0.9	0
149	483	1	0
149	483	1.1	0
149	483	1.2	0
149	483	1.3	0
149	483	1.4	0
149	483	1.5	0
149	483	1.6	0
149	483	1.7	0
149	483	1.8	0
149	483	1.9	0
149	483	2	0
149	483	2.1	0
149	483	2.2	0
149	483	2.3	0
149	483	2.4	0
149	483	2.5	0
149	483	2.6	0
149	483	2.7	0
149	483	2.8	0
149	483	2.9	0
149	483	3	0
149	483	3.1	0
149	483	3.2	0
149	483	3.3	0
149	483	3.4	0
149	483	3.5	0
149	483	3.6	0
149	483	3.7	0
149	483	3.8	0
149	483	3.9	0
149	483	4	0
149	483	4.1	0
149	483	4.2	0
149	483	4.3	0
149	483	4.4	0
149	483	4.5	0
149	483	4.6	0
149	483	4.7	0
149	483	4.8	0
149	483	4.9	0
149	483	5	0
149	483	5.1	0
149	483	5.2	0
149	483	5.3	0
149	483	5.4	0
149	483	5.5	0
149	483	5.6	0
149	483	5.7	0
149	483	5.8	0
149	483	5.9	0
149	483	6	0
149	483	6.1	0
149	483	6.2	0
149	483	6.3	0
149	483	6.4	0
149	483	6.5	0
149	483	6.6	0
149	483	6.7	0
149	483	6.8	0
149	483	6.9	0
149	483	7	0
149	483	7.1	0
149	483	7.2	0
149	483	7.3	0
149	483	7.4	0
149	483	7.5	0
149	483	7.6	0
149	483	7.7	0
149	483	7.8	0
149	483	7.9	0
149	483	8	0
149	483	8.1	0
149	483	8.2	0
149	483	8.3	0
149	483	8.4	0
149	483	8.5	0
149	483	8.6	0
149	483	8.7	0
149	483	8.8	0
149	483	8.9	0
149	483	9	0
149	483	9.1	0
149	483	9.2	0
149	483	9.3	0
149	483	9.4	0
149	483	9.5	0
149	483	9.6	0
149	483	9.7	0
149	483	9.8	0
149	483	9.9	0
149	483	10	0
149	483	10.1	0
149	483	10.2	0
149	483	10.3	0
149	483	10.4	0
149	483	10.5	0
149	483	10.6	0
149	483	10.7	0
149	483	10.8	0
149	483	10.9	0
149	483	11	0
149	483	11.1	0
149	483	11.2	0
149	483	11.3	0
149	483	11.4	0
149	483	11.5	0
149	483	11.6	0
149	483	11.7	0
149	483	11.8	0
149	483	11.9	0
149	483	12	0
149	483	12.1	0
149	483	12.2	0
149	483	12.3	0
149	483	12.4	0
149	483	12.5	0
149	483	12.6	0
149	483	12.7	0
149	483	12.8	0
149	483	12.9	0
149	483	13	0
149	483	13.1	0
149	483	13.2	0
149	483	13.3	0
149	483	13.4	0
149	483	13.5	0
149	483	13.6	0
149	483	13.7	0
149	483	13.8	0
149	483	13.9	0
149	483	14	0
149	483	14.1	0
149	483	14.2	0
149	483	14.3	0
149	483	14.4	0
149	483	14.5	0
149	483	14.6	0
149	483	14.7	0
149	483	14.8	0
149	483	14.9	0
149	483	15	0
149	483	15.1	0
149	483	15.2	0
149	483	15.3	0
149	483	15.4	0
149	483	15.5	0
149	483	15.6	0
149	483	15.7	0
149	483	15.8	0
149	483	15.9	0
149	483	16	0
149	483	16.1	0
149	483	16.2	0
149	483	16.3	0
149	483	16.4	0
149	483	16.5	0
149	483	16.6	0
149	483	16.7	0
149	483	16.8	0
149	483	16.9	0
149	483	17	0
149	483	17.1	0
149	483	17.2	0
149	483	17.3	0
149	483	17.4	0
149	483	17.5	0
149	483	17.6	0
149	483	17.7	0
149	483	17.8	0
149	483	17.9	0
149	483	18	0
149	483	18.1	0
149	483	18.2	0
149	483	18.3	0
149	483	18.4	0
149	483	18.5	0
149	483	18.6	0
149	483	18.7	0
149	483	18.8	0
149	483	18.9	0
149	483	19	0
149	483	19.1	0
149	483	19.2	0
149	483	19.3	0
149	483	19.4	0
149	483	19.5	0
149	483	19.6	0
149	483	19.7	0
149	483	19.8	0
149	483	19.9	0
149	483	20	0
149	483	20.1	0
149	483	20.2	0
149	483	20.3	0
149	483	20.4	0
149	483	20.5	0
149	483	20.6	0
149	483	20.7	0
149	483	20.8	0
149	483	20.9	0
149	483	21	0
149	483	21.1	0
149	483	21.2	0
149	483	21.3	0
149	483	21.4	0
149	483	21.5	0
149	483	21.6	0
149	483	21.7	0
149	483	21.8	0
149	483	21.9	0
149	483	22	0
149	483	22.1	0
149	483	22.2	0
149	483	22.3	0
149	483	22.4	0
149	483	22.5	0
149	483	22.6	0
149	483	22.7	0
149	483	22.8	0
149	483	22.9	0
149	483	23	0
149	483	23.1	0
149	483	23.2	0
149	483	23.3	0
149	483	23.4	0
149	483	23.5	0
149	483	23.6	0
149	483	23.7	0
149	483	23.8	0
149	483	23.9	0
149	483	24	0
149	483	24.1	0
149	483	24.2	0
149	483	24.3	0
149	483	24.4	0
149	483	24.5	0
149	483	24.6	0
149	483	24.7	0
149	483	24.8	0
149	483	24.9	0
149	483	25	0
149	483	25.1	0
149	483	25.2	0
149	483	25.3	0
149	483	25.4	0
149	483	25.5	0
149	483	25.6	0
149	483	25.7	0
149	483	25.8	0
149	483	25.9	0
149	483	26	0
149	483	26.1	0
149	483	26.2	0
149	483	26.3	0
149	483	26.4	0
149	483	26.5	0
149	483	26.6	0
149	483	26.7	0
149	483	26.8	0
149	483	26.9	0
149	483	27	0
149	483	27.1	0
149	483	27.2	0
149	483	27.3	0
149	483	27.4	0
149	483	27.5	0
149	483	27.6	0
149	483	27.7	0
149	483	27.8	0
149	483	27.9	0
149	483	28	0
149	483	28.1	0
149	483	28.2	0
149	483	28.3	0
149	483	28.4	0
149	483	28.5	0
149	483	28.6	0
149	483	28.7	0
149	483	28.8	0
149	483	28.9	0
149	483	29	0
149	483	29.1	0
149	483	29.2	0
149	483	29.3	0
149	483	29.4	0
149	483	29.5	0
149	483	29.6	0
149	483	29.7	0
149	483	29.8	0
149	483	29.9	0
149	483	30	0
149	483	30.1	0
149	483	30.2	0
149	483	30.3	0
149	483	30.4	0
149	483	30.5	0
149	483	30.6	0
149	483	30.7	0
149	483	30.8	0
149	483	30.9	0
149	483	31	0
149	483	31.1	0
149	483	31.2	0
149	483	31.3	0
149	483	31.4	0
149	483	31.5	0
149	483	31.6	0
149	483	31.7	0
149	483	31.8	0
149	483	31.9	0
149	483	32	0
149	483	32.1	0
149	483	32.2	0
149	483	32.3	0
149	483	32.4	0
149	483	32.5	0
149	483	32.6	0
149	483	32.7	0
149	483	32.8	0
149	483	32.9	0
149	483	33	0
149	483	33.1	0
149	483	33.2	0
149	483	33.3	0
149	483	33.4	0
149	483	33.5	0
149	483	33.6	0
149	483	33.7	0
149	483	33.8	0
149	483	33.9	0
149	483	34	0
149	483	34.1	0
149	483	34.2	0
149	483	34.3	0
149	483	34.4	0
149	483	34.5	0
149	483	34.6	0
149	483	34.7	0
149	483	34.8	0
149	483	34.9	0
149	483	35	0
149	483	35.1	0
149	483	35.2	0
149	483	35.3	0
149	483	35.4	0
149	483	35.5	0
149	483	35.6	0
149	483	35.7	0
149	483	35.8	0
149	483	35.9	0
149	483	36	0
149	483	36.1	0
149	483	36.2	0
149	483	36.3	0
149	483	36.4	0
149	483	36.5	0
149	483	36.6	0
149	483	36.7	0
149	483	36.8	0
149	483	36.9	0
149	483	37	0
149	483	37.1	0
vector 150 Scenario.node[37].wlan[0].radio radioMode:vector ETV
attr interpolationmode sample-hold
attr source radioModeChanged
attr title "Radio mode, vector"
vector 151 Scenario.node[37].wlan[0].radio radioChannel:vector ETV
attr interpolationmode sample-hold
attr source radioChannelChanged
attr title "Radio channel, vector"
vector 152 Scenario.node[37].wlan[0].radio receptionState:vector ETV
attr interpolationmode sample-hold
attr source receptionStateChanged
attr title "Radio reception state, vector"
vector 153 Scenario.node[37].wlan[0].mac.dcf.recoveryProcedure contentionWindowChanged:vector ETV
attr interpolationmode sample-hold
attr title "contention window, vector"
vector 154 Scenario.node[38].wlan[0].radio radioMode:vector ETV
attr interpolationmode sample-hold
attr source radioModeChanged
attr title "Radio mode, vector"
vector 155 Scenario.node[38].wlan[0].radio radioChannel:vector ETV
attr interpolationmode sample-hold
attr source radioChannelChanged
attr title "Radio channel, vector"
vector 156 Scenario.node[38].wlan[0].radio receptionState:vector ETV
attr interpolationmode sample-hold
attr source receptionStateChanged
attr title "Radio reception state, vector"
vector 157 Scenario.node[38].wlan[0].mac.dcf.recoveryProcedure contentionWindowChanged:vector ETV
attr interpolationmode sample-hold
attr title "contention window, vector"
vector 158 Scenario.node[39].wlan[0].radio radioMode:vector ETV
attr interpolationmode sample-hold
attr source radioModeChanged
attr title "Radio mode, vector"
vector 159 Scenario.node[39].wlan[0].radio radioChannel:vector ETV
attr interpolationmode sample-hold
attr source radioChannelChanged
attr title "Radio channel, vector"
vector 160 Scenario.node[39].wlan[0].radio receptionState:vector ETV
attr interpolationmode sample-hold
attr source receptionStateChanged
attr title "Radio reception state, vector"
vector 161 Scenario.node[39].wlan[0].mac.dcf.recoveryProcedure contentionWindowChanged:vector ETV
attr interpolationmode sample-hold
attr title "contention window, vector"
vector 162 Scenario.node[40].wlan[0].radio radioMode:vector ETV
attr interpolationmode sample-hold
attr source radioModeChanged
attr title "Radio mode, vector"
vector 163 Scenario.node[40].wlan[0].radio radioChannel:vector ETV
attr interpolationmode sample-hold
attr source radioChannelChanged
attr title "Radio channel, vector"
vector 164 Scenario.node[40].wlan[0].radio receptionState:vector ETV
attr interpolationmode sample-hold
attr source receptionStateChanged
attr title "Radio reception state, vector"
vector 165 Scenario.node[40].wlan[0].mac.dcf.recoveryProcedure contentionWindowChanged:vector ETV
attr interpolationmode sample-hold
attr title "contention window, vector"
vector 166 Scenario.node[12].app[0] throughput:vector ETV
attr source throughput(packetReceived)
attr title "throughput, vector"
attr unit bps
51	178	14.1	15
50	178	14.1	1
48	178	14.1	0
48	178	14.1	0
48	178	14.1	2
49	178	14.1	3
166	535	0.1	0
166	535	0.2	0
166	535	0.3	0
166	535	0.4	0
166	535	0.5	0
166	535	0.6	0
166	535	0.7	0
166	535	0.8	0
166	535	0.9	0
166	535	1	0
166	535	1.1	0
166	535	1.2	0
166	535	1.3	0
166	535	1.4	0
166	535	1.5	0
166	535	1.6	0
166	535	1.7	0
166	535	1.8	0
166	535	1.9	0
166	535	2	0
166	535	2.1	0
166	535	2.2	0
166	535	2.3	0
166	535	2.4	0
166	535	2.5	0
166	535	2.6	0
166	535	2.7	0
166	535	2.8	0
166	535	2.9	0
166	535	3	0
166	535	3.1	0
166	535	3.2	0
166	535	3.3	0
166	535	3.4	0
166	535	3.5	0
166	535	3.6	0
166	535	3.7	0
166	535	3.8	0
166	535	3.9	0
166	535	4	0
166	535	4.1	0
166	535	4.2	0
166	535	4.3	0
166	535	4.4	0
166	535	4.5	0
166	535	4.6	0
166	535	4.7	0
166	535	4.8	0
166	535	4.9	0
166	535	5	0
166	535	5.1	0
166	535	5.2	0
166	535	5.3	0
166	535	5.4	0
166	535	5.5	0
166	535	5.6	0
166	535	5.7	0
166	535	5.8	0
166	535	5.9	0
166	535	6	0
166	535	6.1	0
166	535	6.2	0
166	535	6.3	0
166	535	6.4	0
166	535	6.5	0
166	535	6.6	0
166	535	6.7	0
166	535	6.8	0
166	535	6.9	0
166	535	7	0
166	535	7.1	0
166	535	7.2	0
166	535	7.3	0
166	535	7.4	0
166	535	7.5	0
166	535	7.6	0
166	535	7.7	0
166	535	7.8	0
166	535	7.9	0
166	535	8	0
166	535	8.1	0
166	535	8.2	0
166	535	8.3	0
166	535	8.4	0
166	535	8.5	0
166	535	8.6	0
166	535	8.7	0
166	535	8.8	0
166	535	8.9	0
166	535	9	0
166	535	9.1	0
166	535	9.2	0
166	535	9.3	0
166	535	9.4	0
166	535	9.5	0
166	535	9.6	0
166	535	9.7	0
166	535	9.8	0
166	535	9.9	0
166	535	10	0
166	535	10.1	0
166	535	10.2	0
166	535	10.3	0
166	535	10.4	0
166	535	10.5	0
166	535	10.6	0
166	535	10.7	0
166	535	10.8	0
166	535	10.9	0
166	535	11	0
166	535	11.1	0
166	535	11.2	0
166	535	11.3	0
166	535	11.4	0
166	535	11.5	0
166	535	11.6	0
166	535	11.7	0
166	535	11.8	0
166	535	11.9	0
166	535	12	0
166	535	12.1	0
166	535	12.2	0
166	535	12.3	0
166	535	12.4	0
166	535	12.5	0
166	535	12.6	0
166	535	12.7	0
166	535	12.8	0
166	535	12.9	0
166	535	13	0
166	535	13.1	0
166	535	13.2	0
166	535	13.3	0
166	535	13.4	0
166	535	13.5	0
166	535	13.6	0
166	535	13.7	0
166	535	13.8	0
166	535	13.9	0
166	535	14	0
166	535	14.1	0
166	535	14.2	0
166	535	14.3	0
166	535	14.4	0
166	535	14.5	0
166	535	14.6	0
166	535	14.7	0
166	535	14.8	0
166	535	14.9	0
166	535	15	0
166	535	15.1	0
166	535	15.2	0
166	535	15.3	0
166	535	15.4	0
166	535	15.5	0
166	535	15.6	0
166	535	15.7	0
166	535	15.8	0
166	535	15.9	0
166	535	16	0
166	535	16.1	0
166	535	16.2	0
166	535	16.3	0
166	535	16.4	0
166	535	16.5	0
166	535	16.6	0
166	535	16.7	0
166	535	16.8	0
166	535	16.9	0
166	535	17	0
166	535	17.1	0
166	535	17.2	0
166	535	17.3	0
166	535	17.4	0
166	535	17.5	0
166	535	17.6	0
166	535	17.7	0
166	535	17.8	0
166	535	17.9	0
166	535	18	0
166	535	18.1	0
166	535	18.2	0
166	535	18.3	0
166	535	18.4	0
166	535	18.5	0
166	535	18.6	0
166	535	18.7	0
166	535	18.8	0
166	535	18.9	0
166	535	19	0
166	535	19.1	0
166	535	19.2	0
166	535	19.3	0
166	535	19.4	0
166	535	19.5	0
166	535	19.6	0
166	535	19.7	0
166	535	19.8	0
166	535	19.9	0
166	535	20	0
166	535	20.1	0
166	535	20.2	0
166	535	20.3	0
166	535	20.4	0
166	535	20.5	0
166	535	20.6	0
166	535	20.7	0
166	535	20.8	0
166	535	20.9	0
166	535	21	0
166	535	21.1	0
166	535	21.2	0
166	535	21.3	0
166	535	21.4	0
166	535	21.5	0
166	535	21.6	0
166	535	21.7	0
166	535	21.8	0
166	535	21.9	0
166	535	22	0
166	535	22.1	0
166	535	22.2	0
166	535	22.3	0
166	535	22.4	0
166	535	22.5	0
166	535	22.6	0
166	535	22.7	0
166	535	22.8	0
166	535	22.9	0
166	535	23	0
166	535	23.1	0
166	535	23.2	0
166	535	23.3	0
166	535	23.4	0
166	535	23.5	0
166	535	23.6	0
166	535	23.7	0
166	535	23.8	0
166	535	23.9	0
166	535	24	0
166	535	24.1	0
166	535	24.2	0
166	535	24.3	0
166	535	24.4	0
166	535	24.5	0
166	535	24.6	0
166	535	24.7	0
166	535	24.8	0
166	535	24.9	0
166	535	25	0
166	535	25.1	0
166	535	25.2	0
166	535	25.3	0
166	535	25.4	0
166	535	25.5	0
166	535	25.6	0
166	535	25.7	0
166	535	25.8	0
166	535	25.9	0
166	535	26	0
166	535	26.1	0
166	535	26.2	0
166	535	26.3	0
166	535	26.4	0
166	535	26.5	0
166	535	26.6	0
166	535	26.7	0
166	535	26.8	0
166	535	26.9	0
166	535	27	0
166	535	27.1	0
166	535	27.2	0
166	535	27.3	0
166	535	27.4	0
166	535	27.5	0
166	535	27.6	0
166	535	27.7	0
166	535	27.8	0
166	535	27.9	0
166	535	28	0
166	535	28.1	0
166	535	28.2	0
166	535	28.3	0
166	535	28.4	0
166	535	28.5	0
166	535	28.6	0
166	535	28.7	0
166	535	28.8	0
166	535	28.9	0
166	535	29	0
166	535	29.1	0
166	535	29.2	0
166	535	29.3	0
166	535	29.4	0
166	535	29.5	0
166	535	29.6	0
166	535	29.7	0
166	535	29.8	0
166	535	29.9	0
166	535	30	0
166	535	30.1	0
166	535	30.2	0
166	535	30.3	0
166	535	30.4	0
166	535	30.5	0
166	535	30.6	0
166	535	30.7	0
166	535	30.8	0
166	535	30.9	0
166	535	31	0
166	535	31.1	0
166	535	31.2	0
166	535	31.3	0
166	535	31.4	0
166	535	31.5	0
166	535	31.6	0
166	535	31.7	0
166	535	31.8	0
166	535	31.9	0
166	535	32	0
166	535	32.1	0
166	535	32.2	0
166	535	32.3	0
166	535	32.4	0
166	535	32.5	0
166	535	32.6	0
166	535	32.7	0
166	535	32.8	0
166	535	32.9	0
166	535	33	0
166	535	33.1	0
166	535	33.2	0
166	535	33.3	0
166	535	33.4	0
166	535	33.5	0
166	535	33.6	0
166	535	33.7	0
166	535	33.8	0
166	535	33.9	0
166	535	34	0
166	535	34.1	0
166	535	34.2	0
166	535	34.3	0
166	535	34.4	0
166	535	34.5	0
166	535	34.6	0
166	535	34.7	0
166	535	34.8	0
166	535	34.9	0
166	535	35	0
166	535	35.1	0
166	535	35.2	0
166	535	35.3	0
166	535	35.4	0
166	535	35.5	0
166	535	35.6	0
166	535	35.7	0
166	535	35.8	0
166	535	35.9	0
166	535	36	0
166	535	36.1	0
166	535	36.2	0
166	535	36.3	0
166	535	36.4	0
166	535	36.5	0
166	535	36.6	0
166	535	36.7	0
166	535	36.8	0
166	535	36.9	0
166	535	37	0
166	535	37.1	0
166	535	37.2	0
166	535	37.3	0
166	535	37.4	0
166	535	37.5	0
166	535	37.6	0
166	535	37.7	0
166	535	37.8	0
166	535	37.9	0
166	535	38	0
166	535	38.1	0
166	535	38.2	0
166	535	38.3	0
166	535	38.4	0
166	535	38.5	0
166	535	38.6	0
166	535	38.7	0
166	535	38.8	0
166	535	38.9	0
166	535	39	0
166	535	39.1	0
166	535	39.2	0
166	535	39.3	0
166	535	39.4	0
166	535	39.5	0
166	535	39.6	0
166	535	39.7	0
166	535	39.8	0
166	535	39.9	0
166	535	40	0
166	535	40.1	0
166	535	40.2	0
166	535	40.3	0
166	535	40.4	0
166	535	40.5	0
166	535	40.6	0
166	535	40.7	0
166	535	40.8	0
166	535	40.9	0
166	535	41	0
166	535	41.1	0
vector 167 Scenario.node[41].wlan[0].radio radioMode:vector ETV
attr interpolationmode sample-hold
attr source radioModeChanged
attr title "Radio mode, vector"
vector 168 Scenario.node[41].wlan[0].radio radioChannel:vector ETV
attr interpolationmode sample-hold
attr source radioChannelChanged
attr title "Radio channel, vector"
vector 169 Scenario.node[41].wlan[0].radio receptionState:vector ETV
attr interpolationmode sample-hold
attr source receptionStateChanged
attr title "Radio reception state, vector"
vector 170 Scenario.node[41].wlan[0].mac.dcf.recoveryProcedure contentionWindowChanged:vector ETV
attr interpolationmode sample-hold
attr title "contention window, vector"
vector 171 Scenario.node[9].app[0] throughput:vector ETV
attr source throughput(packetReceived)
attr title "throughput, vector"
attr unit bps
39	116	9.1	15
38	116	9.1	1
36	116	9.1	0
36	116	9.1	0
36	116	9.1	2
37	116	9.1	3
171	548	0.1	0
171	548	0.2	0
171	548	0.3	0
171	548	0.4	0
171	548	0.5	0
171	548	0.6	0
171	548	0.7	0
171	548	0.8	0
171	548	0.9	0
171	548	1	0
171	548	1.1	0
171	548	1.2	0
171	548	1.3	0
171	548	1.4	0
171	548	1.5	0
171	548	1.6	0
171	548	1.7	0
171	548	1.8	0
171	548	1.9	0
171	548	2	0
171	548	2.1	0
171	548	2.2	0
171	548	2.3	0
171	548	2.4	0
171	548	2.5	0
171	548	2.6	0
171	548	2.7	0
171	548	2.8	0
171	548	2.9	0
171	548	3	0
171	548	3.1	0
171	548	3.2	0
171	548	3.3	0
171	548	3.4	0
171	548	3.5	0
171	548	3.6	0
171	548	3.7	0
171	548	3.8	0
171	548	3.9	0
171	548	4	0
171	548	4.1	0
171	548	4.2	0
171	548	4.3	0
171	548	4.4	0
171	548	4.5	0
171	548	4.6	0
171	548	4.7	0
171	548	4.8	0
171	548	4.9	0
171	548	5	0
171	548	5.1	0
171	548	5.2	0
171	548	5.3	0
171	548	5.4	0
171	548	5.5	0
171	548	5.6	0
171	548	5.7	0
171	548	5.8	0
171	548	5.9	0
171	548	6	0
171	548	6.1	0
171	548	6.2	0
171	548	6.3	0
171	548	6.4	0
171	548	6.5	0
171	548	6.6	0
171	548	6.7	0
171	548	6.8	0
171	548	6.9	0
171	548	7	0
171	548	7.1	0
171	548	7.2	0
171	548	7.3	0
171	548	7.4	0
171	548	7.5	0
171	548	7.6	0
171	548	7.7	0
171	548	7.8	0
171	548	7.9	0
171	548	8	0
171	548	8.1	0
171	548	8.2	0
171	548	8.3	0
171	548	8.4	0
171	548	8.5	0
171	548	8.6	0
171	548	8.7	0
171	548	8.8	0
171	548	8.9	0
171	548	9	0
171	548	9.1	0
171	548	9.2	0
171	548	9.3	0
171	548	9.4	0
171	548	9.5	0
171	548	9.6	0
171	548	9.7	0
171	548	9.8	0
171	548	9.9	0
171	548	10	0
171	548	10.1	0
171	548	10.2	0
171	548	10.3	0
171	548	10.4	0
171	548	10.5	0
171	548	10.6	0
171	548	10.7	0
171	548	10.8	0
171	548	10.9	0
171	548	11	0
171	548	11.1	0
171	548	11.2	0
171	548	11.3	0
171	548	11.4	0
171	548	11.5	0
171	548	11.6	0
171	548	11.7	0
171	548	11.8	0
171	548	11.9	0
171	548	12	0
171	548	12.1	0
171	548	12.2	0
171	548	12.3	0
171	548	12.4	0
171	548	12.5	0
171	548	12.6	0
171	548	12.7	0
171	548	12.8	0
171	548	12.9	0
171	548	13	0
171	548	13.1	0
171	548	13.2	0
171	548	13.3	0
171	548	13.4	0
171	548	13.5	0
171	548	13.6	0
171	548	13.7	0
171	548	13.8	0
171	548	13.9	0
171	548	14	0
171	548	14.1	0
171	548	14.2	0
171	548	14.3	0
171	548	14.4	0
171	548	14.5	0
171	548	14.6	0
171	548	14.7	0
171	548	14.8	0
171	548	14.9	0
171	548	15	0
171	548	15.1	0
171	548	15.2	0
171	548	15.3	0
171	548	15.4	0
171	548	15.5	0
171	548	15.6	0
171	548	15.7	0
171	548	15.8	0
171	548	15.9	0
171	548	16	0
171	548	16.1	0
171	548	16.2	0
171	548	16.3	0
171	548	16.4	0
171	548	16.5	0
171	548	16.6	0
171	548	16.7	0
171	548	16.8	0
171	548	16.9	0
171	548	17	0
171	548	17.1	0
171	548	17.2	0
171	548	17.3	0
171	548	17.4	0
171	548	17.5	0
171	548	17.6	0
171	548	17.7	0
171	548	17.8	0
171	548	17.9	0
171	548	18	0
171	548	18.1	0
171	548	18.2	0
171	548	18.3	0
171	548	18.4	0
171	548	18.5	0
171	548	18.6	0
171	548	18.7	0
171	548	18.8	0
171	548	18.9	0
171	548	19	0
171	548	19.1	0
171	548	19.2	0
171	548	19.3	0
171	548	19.4	0
171	548	19.5	0
171	548	19.6	0
171	548	19.7	0
171	548	19.8	0
171	548	19.9	0
171	548	20	0
171	548	20.1	0
171	548	20.2	0
171	548	20.3	0
171	548	20.4	0
171	548	20.5	0
171	548	20.6	0
171	548	20.7	0
171	548	20.8	0
171	548	20.9	0
171	548	21	0
171	548	21.1	0
171	548	21.2	0
171	548	21.3	0
171	548	21.4	0
171	548	21.5	0
171	548	21.6	0
171	548	21.7	0
171	548	21.8	0
171	548	21.9	0
171	548	22	0
171	548	22.1	0
171	548	22.2	0
171	548	22.3	0
171	548	22.4	0
171	548	22.5	0
171	548	22.6	0
171	548	22.7	0
171	548	22.8	0
171	548	22.9	0
171	548	23	0
171	548	23.1	0
171	548	23.2	0
171	548	23.3	0
171	548	23.4	0
171	548	23.5	0
171	548	23.6	0
171	548	23.7	0
171	548	23.8	0
171	548	23.9	0
171	548	24	0
171	548	24.1	0
171	548	24.2	0
171	548	24.3	0
171	548	24.4	0
171	548	24.5	0
171	548	24.6	0
171	548	24.7	0
171	548	24.8	0
171	548	24.9	0
171	548	25	0
171	548	25.1	0
171	548	25.2	0
171	548	25.3	0
171	548	25.4	0
171	548	25.5	0
171	548	25.6	0
171	548	25.7	0
171	548	25.8	0
171	548	25.9	0
171	548	26	0
171	548	26.1	0
171	548	26.2	0
171	548	26.3	0
171	548	26.4	0
171	548	26.5	0
171	548	26.6	0
171	548	26.7	0
171	548	26.8	0
171	548	26.9	0
171	548	27	0
171	548	27.1	0
171	548	27.2	0
171	548	27.3	0
171	548	27.4	0
171	548	27.5	0
171	548	27.6	0
171	548	27.7	0
171	548	27.8	0
171	548	27.9	0
171	548	28	0
171	548	28.1	0
171	548	28.2	0
171	548	28.3	0
171	548	28.4	0
171	548	28.5	0
171	548	28.6	0
171	548	28.7	0
171	548	28.8	0
171	548	28.9	0
171	548	29	0
171	548	29.1	0
171	548	29.2	0
171	548	29.3	0
171	548	29.4	0
171	548	29.5	0
171	548	29.6	0
171	548	29.7	0
171	548	29.8	0
171	548	29.9	0
171	548	30	0
171	548	30.1	0
171	548	30.2	0
171	548	30.3	0
171	548	30.4	0
171	548	30.5	0
171	548	30.6	0
171	548	30.7	0
171	548	30.8	0
171	548	30.9	0
171	548	31	0
171	548	31.1	0
171	548	31.2	0
171	548	31.3	0
171	548	31.4	0
171	548	31.5	0
171	548	31.6	0
171	548	31.7	0
171	548	31.8	0
171	548	31.9	0
171	548	32	0
171	548	32.1	0
171	548	32.2	0
171	548	32.3	0
171	548	32.4	0
171	548	32.5	0
171	548	32.6	0
171	548	32.7	0
171	548	32.8	0
171	548	32.9	0
171	548	33	0
171	548	33.1	0
171	548	33.2	0
171	548	33.3	0
171	548	33.4	0
171	548	33.5	0
171	548	33.6	0
171	548	33.7	0
171	548	33.8	0
171	548	33.9	0
171	548	34	0
171	548	34.1	0
171	548	34.2	0
171	548	34.3	0
171	548	34.4	0
171	548	34.5	0
171	548	34.6	0
171	548	34.7	0
171	548	34.8	0
171	548	34.9	0
171	548	35	0
171	548	35.1	0
171	548	35.2	0
171	548	35.3	0
171	548	35.4	0
171	548	35.5	0
171	548	35.6	0
171	548	35.7	0
171	548	35.8	0
171	548	35.9	0
171	548	36	0
171	548	36.1	0
171	548	36.2	0
171	548	36.3	0
171	548	36.4	0
171	548	36.5	0
171	548	36.6	0
171	548	36.7	0
171	548	36.8	0
171	548	36.9	0
171	548	37	0
171	548	37.1	0
171	548	37.2	0
171	548	37.3	0
171	548	37.4	0
171	548	37.5	0
171	548	37.6	0
171	548	37.7	0
171	548	37.8	0
171	548	37.9	0
171	548	38	0
171	548	38.1	0
171	548	38.2	0
171	548	38.3	0
171	548	38.4	0
171	548	38.5	0
171	548	38.6	0
171	548	38.7	0
171	548	38.8	0
171	548	38.9	0
171	548	39	0
171	548	39.1	0
171	548	39.2	0
171	548	39.3	0
171	548	39.4	0
171	548	39.5	0
171	548	39.6	0
171	548	39.7	0
171	548	39.8	0
171	548	39.9	0
171	548	40	0
171	548	40.1	0
171	548	40.2	0
171	548	40.3	0
171	548	40.4	0
171	548	40.5	0
171	548	40.6	0
171	548	40.7	0
171	548	40.8	0
171	548	40.9	0
171	548	41	0
171	548	41.1	0
171	548	41.2	0
171	548	41.3	0
171	548	41.4	0
171	548	41.5	0
171	548	41.6	0
171	548	41.7	0
171	548	41.8	0
171	548	41.9	0
171	548	42	0
171	548	42.1	0
vector 172 Scenario.node[42].wlan[0].radio radioMode:vector ETV
attr interpolationmode sample-hold
attr source radioModeChanged
attr title "Radio mode, vector"
vector 173 Scenario.node[42].wlan[0].radio radioChannel:vector ETV
attr interpolationmode sample-hold
attr source radioChannelChanged
attr title "Radio channel, vector"
vector 174 Scenario.node[42].wlan[0].radio receptionState:vector ETV
attr interpolationmode sample-hold
attr source receptionStateChanged
attr title "Radio reception state, vector"
vector 175 Scenario.node[42].wlan[0].mac.dcf.recoveryProcedure contentionWindowChanged:vector ETV
attr interpolationmode sample-hold
attr title "contention window, vector"
vector 176 Scenario.node[43].wlan[0].radio radioMode:vector ETV
attr interpolationmode sample-hold
attr source radioModeChanged
attr title "Radio mode, vector"
vector 177 Scenario.node[43].wlan[0].radio radioChannel:vector ETV
attr interpolationmode sample-hold
attr source radioChannelChanged
attr title "Radio channel, vector"
vector 178 Scenario.node[43].wlan[0].radio receptionState:vector ETV
attr interpolationmode sample-hold
attr source receptionStateChanged
attr title "Radio reception state, vector"
vector 179 Scenario.node[43].wlan[0].mac.dcf.recoveryProcedure contentionWindowChanged:vector ETV
attr interpolationmode sample-hold
attr title "contention window, vector"
vector 180 Scenario.node[8].app[0] throughput:vector ETV
attr source throughput(packetReceived)
attr title "throughput, vector"
attr unit bps
35	116	9.1	15
34	116	9.1	1
32	116	9.1	0
32	116	9.1	0
32	116	9.1	2
33	116	9.1	3
180	574	0.1	0
180	574	0.2	0
180	574	0.3	0
180	574	0.4	0
180	574	0.5	0
180	574	0.6	0
180	574	0.7	0
180	574	0.8	0
180	574	0.9	0
180	574	1	0
180	574	1.1	0
180	574	1.2	0
180	574	1.3	0
180	574	1.4	0
180	574	1.5	0
180	574	1.6	0
180	574	1.7	0
180	574	1.8	0
180	574	1.9	0
180	574	2	0
180	574	2.1	0
180	574	2.2	0
180	574	2.3	0
180	574	2.4	0
180	574	2.5	0
180	574	2.6	0
180	574	2.7	0
180	574	2.8	0
180	574	2.9	0
180	574	3	0
180	574	3.1	0
180	574	3.2	0
180	574	3.3	0
180	574	3.4	0
180	574	3.5	0
180	574	3.6	0
180	574	3.7	0
180	574	3.8	0
180	574	3.9	0
180	574	4	0
180	574	4.1	0
180	574	4.2	0
180	574	4.3	0
180	574	4.4	0
180	574	4.5	0
180	574	4.6	0
180	574	4.7	0
180	574	4.8	0
180	574	4.9	0
180	574	5	0
180	574	5.1	0
180	574	5.2	0
180	574	5.3	0
180	574	5.4	0
180	574	5.5	0
180	574	5.6	0
180	574	5.7	0
180	574	5.8	0
180	574	5.9	0
180	574	6	0
180	574	6.1	0
180	574	6.2	0
180	574	6.3	0
180	574	6.4	0
180	574	6.5	0
180	574	6.6	0
180	574	6.7	0
180	574	6.8	0
180	574	6.9	0
180	574	7	0
180	574	7.1	0
180	574	7.2	0
180	574	7.3	0
180	574	7.4	0
180	574	7.5	0
180	574	7.6	0
180	574	7.7	0
180	574	7.8	0
180	574	7.9	0
180	574	8	0
180	574	8.1	0
180	574	8.2	0
180	574	8.3	0
180	574	8.4	0
180	574	8.5	0
180	574	8.6	0
180	574	8.7	0
180	574	8.8	0
180	574	8.9	0
180	574	9	0
180	574	9.1	0
180	574	9.2	0
180	574	9.3	0
180	574	9.4	0
180	574	9.5	0
180	574	9.6	0
180	574	9.7	0
180	574	9.8	0
180	574	9.9	0
180	574	10	0
180	574	10.1	0
180	574	10.2	0
180	574	10.3	0
180	574	10.4	0
180	574	10.5	0
180	574	10.6	0
180	574	10.7	0
180	574	10.8	0
180	574	10.9	0
180	574	11	0
180	574	11.1	0
180	574	11.2	0
180	574	11.3	0
180	574	11.4	0
180	574	11.5	0
180	574	11.6	0
180	574	11.7	0
180	574	11.8	0
180	574	11.9	0
180	574	12	0
180	574	12.1	0
180	574	12.2	0
180	574	12.3	0
180	574	12.4	0
180	574	12.5	0
180	574	12.6	0
180	574	12.7	0
180	574	12.8	0
180	574	12.9	0
180	574	13	0
180	574	13.1	0
180	574	13.2	0
180	574	13.3	0
180	574	13.4	0
180	574	13.5	0
180	574	13.6	0
180	574	13.7	0
180	574	13.8	0
180	574	13.9	0
180	574	14	0
180	574	14.1	0
180	574	14.2	0
180	574	14.3	0
180	574	14.4	0
180	574	14.5	0
180	574	14.6	0
180	574	14.7	0
180	574	14.8	0
180	574	14.9	0
180	574	15	0
180	574	15.1	0
180	574	15.2	0
180	574	15.3	0
180	574	15.4	0
180	574	15.5	0
180	574	15.6	0
180	574	15.7	0
180	574	15.8	0
180	574	15.9	0
180	574	16	0
180	574	16.1	0
180	574	16.2	0
180	574	16.3	0
180	574	16.4	0
180	574	16.5	0
180	574	16.6	0
180	574	16.7	0
180	574	16.8	0
180	574	16.9	0
180	574	17	0
180	574	17.1	0
180	574	17.2	0
180	574	17.3	0
180	574	17.4	0
180	574	17.5	0
180	574	17.6	0
180	574	17.7	0
180	574	17.8	0
180	574	17.9	0
180	574	18	0
180	574	18.1	0
180	574	18.2	0
180	574	18.3	0
180	574	18.4	0
180	574	18.5	0
180	574	18.6	0
180	574	18.7	0
180	574	18.8	0
180	574	18.9	0
180	574	19	0
180	574	19.1	0
180	574	19.2	0
180	574	19.3	0
180	574	19.4	0
180	574	19.5	0
180	574	19.6	0
180	574	19.7	0
180	574	19.8	0
180	574	19.9	0
180	574	20	0
180	574	20.1	0
180	574	20.2	0
180	574	20.3	0
180	574	20.4	0
180	574	20.5	0
180	574	20.6	0
180	574	20.7	0
180	574	20.8	0
180	574	20.9	0
180	574	21	0
180	574	21.1	0
180	574	21.2	0
180	574	21.3	0
180	574	21.4	0
180	574	21.5	0
180	574	21.6	0
180	574	21.7	0
180	574	21.8	0
180	574	21.9	0
180	574	22	0
180	574	22.1	0
180	574	22.2	0
180	574	22.3	0
180	574	22.4	0
180	574	22.5	0
180	574	22.6	0
180	574	22.7	0
180	574	22.8	0
180	574	22.9	0
180	574	23	0
180	574	23.1	0
180	574	23.2	0
180	574	23.3	0
180	574	23.4	0
180	574	23.5	0
180	574	23.6	0
180	574	23.7	0
180	574	23.8	0
180	574	23.9	0
180	574	24	0
180	574	24.1	0
180	574	24.2	0
180	574	24.3	0
180	574	24.4	0
180	574	24.5	0
180	574	24.6	0
180	574	24.7	0
180	574	24.8	0
180	574	24.9	0
180	574	25	0
180	574	25.1	0
180	574	25.2	0
180	574	25.3	0
180	574	25.4	0
180	574	25.5	0
180	574	25.6	0
180	574	25.7	0
180	574	25.8	0
180	574	25.9	0
180	574	26	0
180	574	26.1	0
180	574	26.2	0
180	574	26.3	0
180	574	26.4	0
180	574	26.5	0
180	574	26.6	0
180	574	26.7	0
180	574	26.8	0
180	574	26.9	0
180	574	27	0
180	574	27.1	0
180	574	27.2	0
180	574	27.3	0
180	574	27.4	0
180	574	27.5	0
180	574	27.6	0
180	574	27.7	0
180	574	27.8	0
180	574	27.9	0
180	574	28	0
180	574	28.1	0
180	574	28.2	0
180	574	28.3	0
180	574	28.4	0
180	574	28.5	0
180	574	28.6	0
180	574	28.7	0
180	574	28.8	0
180	574	28.9	0
180	574	29	0
180	574	29.1	0
180	574	29.2	0
180	574	29.3	0
180	574	29.4	0
180	574	29.5	0
180	574	29.6	0
180	574	29.7	0
180	574	29.8	0
180	574	29.9	0
180	574	30	0
180	574	30.1	0
180	574	30.2	0
180	574	30.3	0
180	574	30.4	0
180	574	30.5	0
180	574	30.6	0
180	574	30.7	0
180	574	30.8	0
180	574	30.9	0
180	574	31	0
180	574	31.1	0
180	574	31.2	0
180	574	31.3	0
180	574	31.4	0
180	574	31.5	0
180	574	31.6	0
180	574	31.7	0
180	574	31.8	0
180	574	31.9	0
180	574	32	0
180	574	32.1	0
180	574	32.2	0
180	574	32.3	0
180	574	32.4	0
180	574	32.5	0
180	574	32.6	0
180	574	32.7	0
180	574	32.8	0
180	574	32.9	0
180	574	33	0
180	574	33.1	0
180	574	33.2	0
180	574	33.3	0
180	574	33.4	0
180	574	33.5	0
180	574	33.6	0
180	574	33.7	0
180	574	33.8	0
180	574	33.9	0
180	574	34	0
180	574	34.1	0
180	574	34.2	0
180	574	34.3	0
180	574	34.4	0
180	574	34.5	0
180	574	34.6	0
180	574	34.7	0
180	574	34.8	0
180	574	34.9	0
180	574	35	0
180	574	35.1	0
180	574	35.2	0
180	574	35.3	0
180	574	35.4	0
180	574	35.5	0
180	574	35.6	0
180	574	35.7	0
180	574	35.8	0
180	574	35.9	0
180	574	36	0
180	574	36.1	0
180	574	36.2	0
180	574	36.3	0
180	574	36.4	0
180	574	36.5	0
180	574	36.6	0
180	574	36.7	0
180	574	36.8	0
180	574	36.9	0
180	574	37	0
180	574	37.1	0
180	574	37.2	0
180	574	37.3	0
180	574	37.4	0
180	574	37.5	0
180	574	37.6	0
180	574	37.7	0
180	574	37.8	0
180	574	37.9	0
180	574	38	0
180	574	38.1	0
180	574	38.2	0
180	574	38.3	0
180	574	38.4	0
180	574	38.5	0
180	574	38.6	0
180	574	38.7	0
180	574	38.8	0
180	574	38.9	0
180	574	39	0
180	574	39.1	0
180	574	39.2	0
180	574	39.3	0
180	574	39.4	0
180	574	39.5	0
180	574	39.6	0
180	574	39.7	0
180	574	39.8	0
180	574	39.9	0
180	574	40	0
180	574	40.1	0
180	574	40.2	0
180	574	40.3	0
180	574	40.4	0
180	574	40.5	0
180	574	40.6	0
180	574	40.7	0
180	574	40.8	0
180	574	40.9	0
180	574	41	0
180	574	41.1	0
180	574	41.2	0
180	574	41.3	0
180	574	41.4	0
180	574	41.5	0
180	574	41.6	0
180	574	41.7	0
180	574	41.8	0
180	574	41.9	0
180	574	42	0
180	574	42.1	0
180	574	42.2	0
180	574	42.3	0
180	574	42.4	0
180	574	42.5	0
180	574	42.6	0
180	574	42.7	0
180	574	42.8	0
180	574	42.9	0
180	574	43	0
180	574	43.1	0
180	574	43.2	0
180	574	43.3	0
180	574	43.4	0
180	574	43.5	0
180	574	43.6	0
180	574	43.7	0
180	574	43.8	0
180	574	43.9	0
180	574	44	0
180	574	44.1	0
vector 181 Scenario.node[44].wlan[0].radio radioMode:vector ETV
attr interpolationmode sample-hold
attr source radioModeChanged
attr title "Radio mode, vector"
vector 182 Scenario.node[44].wlan[0].radio radioChannel:vector ETV
attr interpolationmode sample-hold
attr source radioChannelChanged
attr title "Radio channel, vector"
vector 183 Scenario.node[44].wlan[0].radio receptionState:vector ETV
attr interpolationmode sample-hold
attr source receptionStateChanged
attr title "Radio reception state, vector"
vector 184 Scenario.node[44].wlan[0].mac.dcf.recoveryProcedure contentionWindowChanged:vector ETV
attr interpolationmode sample-hold
attr title "contention window, vector"
vector 185 Scenario.node[18].app[0] throughput:vector ETV
attr source throughput(packetReceived)
attr title "throughput, vector"
attr unit bps
75	236	18.1	15
74	236	18.1	1
72	236	18.1	0
72	236	18.1	0
72	236	18.1	2
73	236	18.1	3
185	587	0.1	0
185	587	0.2	0
185	587	0.3	0
185	587	0.4	0
185	587	0.5	0
185	587	0.6	0
185	587	0.7	0
185	587	0.8	0
185	587	0.9	0
185	587	1	0
185	587	1.1	0
185	587	1.2	0
185	587	1.3	0
185	587	1.4	0
185	587	1.5	0
185	587	1.6	0
185	587	1.7	0
185	587	1.8	0
185	587	1.9	0
185	587	2	0
185	587	2.1	0
185	587	2.2	0
185	587	2.3	0
185	587	2.4	0
185	587	2.5	0
185	587	2.6	0
185	587	2.7	0
185	587	2.8	0
185	587	2.9	0
185	587	3	0
185	587	3.1	0
185	587	3.2	0
185	587	3.3	0
185	587	3.4	0
185	587	3.5	0
185	587	3.6	0
185	587	3.7	0
185	587	3.8	0
185	587	3.9	0
185	587	4	0
185	587	4.1	0
185	587	4.2	0
185	587	4.3	0
185	587	4.4	0
185	587	4.5	0
185	587	4.6	0
185	587	4.7	0
185	587	4.8	0
185	587	4.9	0
185	587	5	0
185	587	5.1	0
185	587	5.2	0
185	587	5.3	0
185	587	5.4	0
185	587	5.5	0
185	587	5.6	0
185	587	5.7	0
185	587	5.8	0
185	587	5.9	0
185	587	6	0
185	587	6.1	0
185	587	6.2	0
185	587	6.3	0
185	587	6.4	0
185	587	6.5	0
185	587	6.6	0
185	587	6.7	0
185	587	6.8	0
185	587	6.9	0
185	587	7	0
185	587	7.1	0
185	587	7.2	0
185	587	7.3	0
185	587	7.4	0
185	587	7.5	0
185	587	7.6	0
185	587	7.7	0
185	587	7.8	0
185	587	7.9	0
185	587	8	0
185	587	8.1	0
185	587	8.2	0
185	587	8.3	0
185	587	8.4	0
185	587	8.5	0
185	587	8.6	0
185	587	8.7	0
185	587	8.8	0
185	587	8.9	0
185	587	9	0
185	587	9.1	0
185	587	9.2	0
185	587	9.3	0
185	587	9.4	0
185	587	9.5	0
185	587	9.6	0
185	587	9.7	0
185	587	9.8	0
185	587	9.9	0
185	587	10	0
185	587	10.1	0
185	587	10.2	0
185	587	10.3	0
185	587	10.4	0
185	587	10.5	0
185	587	10.6	0
185	587	10.7	0
185	587	10.8	0
185	587	10.9	0
185	587	11	0
185	587	11.1	0
185	587	11.2	0
185	587	11.3	0
185	587	11.4	0
185	587	11.5	0
185	587	11.6	0
185	587	11.7	0
185	587	11.8	0
185	587	11.9	0
185	587	12	0
185	587	12.1	0
185	587	12.2	0
185	587	12.3	0
185	587	12.4	0
185	587	12.5	0
185	587	12.6	0
185	587	12.7	0
185	587	12.8	0
185	587	12.9	0
185	587	13	0
185	587	13.1	0
185	587	13.2	0
185	587	13.3	0
185	587	13.4	0
185	587	13.5	0
185	587	13.6	0
185	587	13.7	0
185	587	13.8	0
185	587	13.9	0
185	587	14	0
185	587	14.1	0
185	587	14.2	0
185	587	14.3	0
185	587	14.4	0
185	587	14.5	0
185	587	14.6	0
185	587	14.7	0
185	587	14.8	0
185	587	14.9	0
185	587	15	0
185	587	15.1	0
185	587	15.2	0
185	587	15.3	0
185	587	15.4	0
185	587	15.5	0
185	587	15.6	0
185	587	15.7	0
185	587	15.8	0
185	587	15.9	0
185	587	16	0
185	587	16.1	0
185	587	16.2	0
185	587	16.3	0
185	587	16.4	0
185	587	16.5	0
185	587	16.6	0
185	587	16.7	0
185	587	16.8	0
185	587	16.9	0
185	587	17	0
185	587	17.1	0
185	587	17.2	0
185	587	17.3	0
185	587	17.4	0
185	587	17.5	0
185	587	17.6	0
185	587	17.7	0
185	587	17.8	0
185	587	17.9	0
185	587	18	0
185	587	18.1	0
185	587	18.2	0
185	587	18.3	0
185	587	18.4	0
185	587	18.5	0
185	587	18.6	0
185	587	18.7	0
185	587	18.8	0
185	587	18.9	0
185	587	19	0
185	587	19.1	0
185	587	19.2	0
185	587	19.3	0
185	587	19.4	0
185	587	19.5	0
185	587	19.6	0
185	587	19.7	0
185	587	19.8	0
185	587	19.9	0
185	587	20	0
185	587	20.1	0
185	587	20.2	0
185	587	20.3	0
185	587	20.4	0
185	587	20.5	0
185	587	20.6	0
185	587	20.7	0
185	587	20.8	0
185	587	20.9	0
185	587	21	0
185	587	21.1	0
185	587	21.2	0
185	587	21.3	0
185	587	21.4	0
185	587	21.5	0
185	587	21.6	0
185	587	21.7	0
185	587	21.8	0
185	587	21.9	0
185	587	22	0
185	587	22.1	0
185	587	22.2	0
185	587	22.3	0
185	587	22.4	0
185	587	22.5	0
185	587	22.6	0
185	587	22.7	0
185	587	22.8	0
185	587	22.9	0
185	587	23	0
185	587	23.1	0
185	587	23.2	0
185	587	23.3	0
185	587	23.4	0
185	587	23.5	0
185	587	23.6	0
185	587	23.7	0
185	587	23.8	0
185	587	23.9	0
185	587	24	0
185	587	24.1	0
185	587	24.2	0
185	587	24.3	0
185	587	24.4	0
185	587	24.5	0
185	587	24.6	0
185	587	24.7	0
185	587	24.8	0
185	587	24.9	0
185	587	25	0
185	587	25.1	0
185	587	25.2	0
185	587	25.3	0
185	587	25.4	0
185	587	25.5	0
185	587	25.6	0
185	587	25.7	0
185	587	25.8	0
185	587	25.9	0
185	587	26	0
185	587	26.1	0
185	587	26.2	0
185	587	26.3	0
185	587	26.4	0
185	587	26.5	0
185	587	26.6	0
185	587	26.7	0
185	587	26.8	0
185	587	26.9	0
185	587	27	0
185	587	27.1	0
185	587	27.2	0
185	587	27.3	0
185	587	27.4	0
185	587	27.5	0
185	587	27.6	0
185	587	27.7	0
185	587	27.8	0
185	587	27.9	0
185	587	28	0
185	587	28.1	0
185	587	28.2	0
185	587	28.3	0
185	587	28.4	0
185	587	28.5	0
185	587	28.6	0
185	587	28.7	0
185	587	28.8	0
185	587	28.9	0
185	587	29	0
185	587	29.1	0
185	587	29.2	0
185	587	29.3	0
185	587	29.4	0
185	587	29.5	0
185	587	29.6	0
185	587	29.7	0
185	587	29.8	0
185	587	29.9	0
185	587	30	0
185	587	30.1	0
185	587	30.2	0
185	587	30.3	0
185	587	30.4	0
185	587	30.5	0
185	587	30.6	0
185	587	30.7	0
185	587	30.8	0
185	587	30.9	0
185	587	31	0
185	587	31.1	0
185	587	31.2	0
185	587	31.3	0
185	587	31.4	0
185	587	31.5	0
185	587	31.6	0
185	587	31.7	0
185	587	31.8	0
185	587	31.9	0
185	587	32	0
185	587	32.1	0
185	587	32.2	0
185	587	32.3	0
185	587	32.4	0
185	587	32.5	0
185	587	32.6	0
185	587	32.7	0
185	587	32.8	0
185	587	32.9	0
185	587	33	0
185	587	33.1	0
185	587	33.2	0
185	587	33.3	0
185	587	33.4	0
185	587	33.5	0
185	587	33.6	0
185	587	33.7	0
185	587	33.8	0
185	587	33.9	0
185	587	34	0
185	587	34.1	0
185	587	34.2	0
185	587	34.3	0
185	587	34.4	0
185	587	34.5	0
185	587	34.6	0
185	587	34.7	0
185	587	34.8	0
185	587	34.9	0
185	587	35	0
185	587	35.1	0
185	587	35.2	0
185	587	35.3	0
185	587	35.4	0
185	587	35.5	0
185	587	35.6	0
185	587	35.7	0
185	587	35.8	0
185	587	35.9	0
185	587	36	0
185	587	36.1	0
185	587	36.2	0
185	587	36.3	0
185	587	36.4	0
185	587	36.5	0
185	587	36.6	0
185	587	36.7	0
185	587	36.8	0
185	587	36.9	0
185	587	37	0
185	587	37.1	0
185	587	37.2	0
185	587	37.3	0
185	587	37.4	0
185	587	37.5	0
185	587	37.6	0
185	587	37.7	0
185	587	37.8	0
185	587	37.9	0
185	587	38	0
185	587	38.1	0
185	587	38.2	0
185	587	38.3	0
185	587	38.4	0
185	587	38.5	0
185	587	38.6	0
185	587	38.7	0
185	587	38.8	0
185	587	38.9	0
185	587	39	0
185	587	39.1	0
185	587	39.2	0
185	587	39.3	0
185	587	39.4	0
185	587	39.5	0
185	587	39.6	0
185	587	39.7	0
185	587	39.8	0
185	587	39.9	0
185	587	40	0
185	587	40.1	0
185	587	40.2	0
185	587	40.3	0
185	587	40.4	0
185	587	40.5	0
185	587	40.6	0
185	587	40.7	0
185	587	40.8	0
185	587	40.9	0
185	587	41	0
185	587	41.1	0
185	587	41.2	0
185	587	41.3	0
185	587	41.4	0
185	587	41.5	0
185	587	41.6	0
185	587	41.7	0
185	587	41.8	0
185	587	41.9	0
185	587	42	0
185	587	42.1	0
185	587	42.2	0
185	587	42.3	0
185	587	42.4	0
185	587	42.5	0
185	587	42.6	0
185	587	42.7	0
185	587	42.8	0
185	587	42.9	0
185	587	43	0
185	587	43.1	0
185	587	43.2	0
185	587	43.3	0
185	587	43.4	0
185	587	43.5	0
185	587	43.6	0
185	587	43.7	0
185	587	43.8	0
185	587	43.9	0
185	587	44	0
185	587	44.1	0
185	587	44.2	0
185	587	44.3	0
185	587	44.4	0
185	587	44.5	0
185	587	44.6	0
185	587	44.7	0
185	587	44.8	0
185	587	44.9	0
185	587	45	0
185	587	45.1	0
vector 186 Scenario.node[45].wlan[0].radio radioMode:vector ETV
attr interpolationmode sample-hold
attr source radioModeChanged
attr title "Radio mode, vector"
vector 187 Scenario.node[45].wlan[0].radio radioChannel:vector ETV
attr interpolationmode sample-hold
attr source radioChannelChanged
attr title "Radio channel, vector"
vector 188 Scenario.node[45].wlan[0].radio receptionState:vector ETV
attr interpolationmode sample-hold
attr source receptionStateChanged
attr title "Radio reception state, vector"
vector 189 Scenario.node[45].wlan[0].mac.dcf.recoveryProcedure contentionWindowChanged:vector ETV
attr interpolationmode sample-hold
attr title "contention window, vector"
vector 190 Scenario.node[26].app[0] throughput:vector ETV
attr source throughput(packetReceived)
attr title "throughput, vector"
attr unit bps
108	340	26.1	15
107	340	26.1	1
105	340	26.1	0
105	340	26.1	0
105	340	26.1	2
106	340	26.1	3
190	610	0.1	0
190	610	0.2	0
190	610	0.3	0
190	610	0.4	0
190	610	0.5	0
190	610	0.6	0
190	610	0.7	0
190	610	0.8	0
190	610	0.9	0
190	610	1	0
190	610	1.1	0
190	610	1.2	0
190	610	1.3	0
190	610	1.4	0
190	610	1.5	0
190	610	1.6	0
190	610	1.7	0
190	610	1.8	0
190	610	1.9	0
190	610	2	0
190	610	2.1	0
190	610	2.2	0
190	610	2.3	0
190	610	2.4	0
190	610	2.5	0
190	610	2.6	0
190	610	2.7	0
190	610	2.8	0
190	610	2.9	0
190	610	3	0
190	610	3.1	0
190	610	3.2	0
190	610	3.3	0
190	610	3.4	0
190	610	3.5	0
190	610	3.6	0
190	610	3.7	0
190	610	3.8	0
190	610	3.9	0
190	610	4	0
190	610	4.1	0
190	610	4.2	0
190	610	4.3	0
190	610	4.4	0
190	610	4.5	0
190	610	4.6	0
190	610	4.7	0
190	610	4.8	0
190	610	4.9	0
190	610	5	0
190	610	5.1	0
190	610	5.2	0
190	610	5.3	0
190	610	5.4	0
190	610	5.5	0
190	610	5.6	0
190	610	5.7	0
190	610	5.8	0
190	610	5.9	0
190	610	6	0
190	610	6.1	0
190	610	6.2	0
190	610	6.3	0
190	610	6.4	0
190	610	6.5	0
190	610	6.6	0
190	610	6.7	0
190	610	6.8	0
190	610	6.9	0
190	610	7	0
190	610	7.1	0
190	610	7.2	0
190	610	7.3	0
190	610	7.4	0
190	610	7.5	0
190	610	7.6	0
190	610	7.7	0
190	610	7.8	0
190	610	7.9	0
190	610	8	0
190	610	8.1	0
190	610	8.2	0
190	610	8.3	0
190	610	8.4	0
190	610	8.5	0
190	610	8.6	0
190	610	8.7	0
190	610	8.8	0
190	610	8.9	0
190	610	9	0
190	610	9.1	0
190	610	9.2	0
190	610	9.3	0
190	610	9.4	0
190	610	9.5	0
190	610	9.6	0
190	610	9.7	0
190	610	9.8	0
190	610	9.9	0
190	610	10	0
190	610	10.1	0
190	610	10.2	0
190	610	10.3	0
190	610	10.4	0
190	610	10.5	0
190	610	10.6	0
190	610	10.7	0
190	610	10.8	0
190	610	10.9	0
190	610	11	0
190	610	11.1	0
190	610	11.2	0
190	610	11.3	0
190	610	11.4	0
190	610	11.5	0
190	610	11.6	0
190	610	11.7	0
190	610	11.8	0
190	610	11.9	0
190	610	12	0
190	610	12.1	0
190	610	12.2	0
190	610	12.3	0
190	610	12.4	0
190	610	12.5	0
190	610	12.6	0
190	610	12.7	0
190	610	12.8	0
190	610	12.9	0
190	610	13	0
190	610	13.1	0
190	610	13.2	0
190	610	13.3	0
190	610	13.4	0
190	610	13.5	0
190	610	13.6	0
190	610	13.7	0
190	610	13.8	0
190	610	13.9	0
190	610	14	0
190	610	14.1	0
190	610	14.2	0
190	610	14.3	0
190	610	14.4	0
190	610	14.5	0
190	610	14.6	0
190	610	14.7	0
190	610	14.8	0
190	610	14.9	0
190	610	15	0
190	610	15.1	0
190	610	15.2	0
190	610	15.3	0
190	610	15.4	0
190	610	15.5	0
190	610	15.6	0
190	610	15.7	0
190	610	15.8	0
190	610	15.9	0
190	610	16	0
190	610	16.1	0
190	610	16.2	0
190	610	16.3	0
190	610	16.4	0
190	610	16.5	0
190	610	16.6	0
190	610	16.7	0
190	610	16.8	0
190	610	16.9	0
190	610	17	0
190	610	17.1	0
190	610	17.2	0
190	610	17.3	0
190	610	17.4	0
190	610	17.5	0
190	610	17.6	0
190	610	17.7	0
190	610	17.8	0
190	610	17.9	0
190	610	18	0
190	610	18.1	0
190	610	18.2	0
190	610	18.3	0
190	610	18.4	0
190	610	18.5	0
190	610	18.6	0
190	610	18.7	0
190	610	18.8	0
190	610	18.9	0
190	610	19	0
190	610	19.1	0
190	610	19.2	0
190	610	19.3	0
190	610	19.4	0
190	610	19.5	0
190	610	19.6	0
190	610	19.7	0
190	610	19.8	0
190	610	19.9	0
190	610	20	0
190	610	20.1	0
190	610	20.2	0
190	610	20.3	0
190	610	20.4	0
190	610	20.5	0
190	610	20.6	0
190	610	20.7	0
190	610	20.8	0
190	610	20.9	0
190	610	21	0
190	610	21.1	0
190	610	21.2	0
190	610	21.3	0
190	610	21.4	0
190	610	21.5	0
190	610	21.6	0
190	610	21.7	0
190	610	21.8	0
190	610	21.9	0
190	610	22	0
190	610	22.1	0
190	610	22.2	0
190	610	22.3	0
190	610	22.4	0
190	610	22.5	0
190	610	22.6	0
190	610	22.7	0
190	610	22.8	0
190	610	22.9	0
190	610	23	0
190	610	23.1	0
190	610	23.2	0
190	610	23.3	0
190	610	23.4	0
190	610	23.5	0
190	610	23.6	0
190	610	23.7	0
190	610	23.8	0
190	610	23.9	0
190	610	24	0
190	610	24.1	0
190	610	24.2	0
190	610	24.3	0
190	610	24.4	0
190	610	24.5	0
190	610	24.6	0
190	610	24.7	0
190	610	24.8	0
190	610	24.9	0
190	610	25	0
190	610	25.1	0
190	610	25.2	0
190	610	25.3	0
190	610	25.4	0
190	610	25.5	0
190	610	25.6	0
190	610	25.7	0
190	610	25.8	0
190	610	25.9	0
190	610	26	0
190	610	26.1	0
190	610	26.2	0
190	610	26.3	0
190	610	26.4	0
190	610	26.5	0
190	610	26.6	0
190	610	26.7	0
190	610	26.8	0
190	610	26.9	0
190	610	27	0
190	610	27.1	0
190	610	27.2	0
190	610	27.3	0
190	610	27.4	0
190	610	27.5	0
190	610	27.6	0
190	610	27.7	0
190	610	27.8	0
190	610	27.9	0
190	610	28	0
190	610	28.1	0
190	610	28.2	0
190	610	28.3	0
190	610	28.4	0
190	610	28.5	0
190	610	28.6	0
190	610	28.7	0
190	610	28.8	0
190	610	28.9	0
190	610	29	0
190	610	29.1	0
190	610	29.2	0
190	610	29.3	0
190	610	29.4	0
190	610	29.5	0
190	610	29.6	0
190	610	29.7	0
190	610	29.8	0
190	610	29.9	0
190	610	30	0
190	610	30.1	0
190	610	30.2	0
190	610	30.3	0
190	610	30.4	0
190	610	30.5	0
190	610	30.6	0
190	610	30.7	0
190	610	30.8	0
190	610	30.9	0
190	610	31	0
190	610	31.1	0
190	610	31.2	0
190	610	31.3	0
190	610	31.4	0
190	610	31.5	0
190	610	31.6	0
190	610	31.7	0
190	610	31.8	0
190	610	31.9	0
190	610	32	0
190	610	32.1	0
190	610	32.2	0
190	610	32.3	0
190	610	32.4	0
190	610	32.5	0
190	610	32.6	0
190	610	32.7	0
190	610	32.8	0
190	610	32.9	0
190	610	33	0
190	610	33.1	0
190	610	33.2	0
190	610	33.3	0
190	610	33.4	0
190	610	33.5	0
190	610	33.6	0
190	610	33.7	0
190	610	33.8	0
190	610	33.9	0
190	610	34	0
190	610	34.1	0
190	610	34.2	0
190	610	34.3	0
190	610	34.4	0
190	610	34.5	0
190	610	34.6	0
190	610	34.7	0
190	610	34.8	0
190	610	34.9	0
190	610	35	0
190	610	35.1	0
190	610	35.2	0
190	610	35.3	0
190	610	35.4	0
190	610	35.5	0
190	610	35.6	0
190	610	35.7	0
190	610	35.8	0
190	610	35.9	0
190	610	36	0
190	610	36.1	0
190	610	36.2	0
190	610	36.3	0
190	610	36.4	0
190	610	36.5	0
190	610	36.6	0
190	610	36.7	0
190	610	36.8	0
190	610	36.9	0
190	610	37	0
190	610	37.1	0
190	610	37.2	0
190	610	37.3	0
190	610	37.4	0
190	610	37.5	0
190	610	37.6	0
190	610	37.7	0
190	610	37.8	0
190	610	37.9	0
190	610	38	0
190	610	38.1	0
190	610	38.2	0
190	610	38.3	0
190	610	38.4	0
190	610	38.5	0
190	610	38.6	0
190	610	38.7	0
190	610	38.8	0
190	610	38.9	0
190	610	39	0
190	610	39.1	0
190	610	39.2	0
190	610	39.3	0
190	610	39.4	0
190	610	39.5	0
190	610	39.6	0
190	610	39.7	0
190	610	39.8	0
190	610	39.9	0
190	610	40	0
190	610	40.1	0
190	610	40.2	0
190	610	40.3	0
190	610	40.4	0
190	610	40.5	0
190	610	40.6	0
190	610	40.7	0
190	610	40.8	0
190	610	40.9	0
190	610	41	0
190	610	41.1	0
190	610	41.2	0
190	610	41.3	0
190	610	41.4	0
190	610	41.5	0
190	610	41.6	0
190	610	41.7	0
190	610	41.8	0
190	610	41.9	0
190	610	42	0
190	610	42.1	0
190	610	42.2	0
190	610	42.3	0
190	610	42.4	0
190	610	42.5	0
190	610	42.6	0
190	610	42.7	0
190	610	42.8	0
190	610	42.9	0
190	610	43	0
190	610	43.1	0
190	610	43.2	0
190	610	43.3	0
190	610	43.4	0
190	610	43.5	0
190	610	43.6	0
190	610	43.7	0
190	610	43.8	0
190	610	43.9	0
190	610	44	0
190	610	44.1	0
190	610	44.2	0
190	610	44.3	0
190	610	44.4	0
190	610	44.5	0
190	610	44.6	0
190	610	44.7	0
190	610	44.8	0
190	610	44.9	0
190	610	45	0
190	610	45.1	0
190	610	45.2	0
190	610	45.3	0
190	610	45.4	0
190	610	45.5	0
190	610	45.6	0
190	610	45.7	0
190	610	45.8	0
190	610	45.9	0
190	610	46	0
190	610	46.1	0
190	610	46.2	0
190	610	46.3	0
190	610	46.4	0
190	610	46.5	0
190	610	46.6	0
190	610	46.7	0
190	610	46.8	0
190	610	46.9	0
190	610	47	0
190	610	47.1	0
vector 191 Scenario.node[46].wlan[0].radio radioMode:vector ETV
attr interpolationmode sample-hold
attr source radioModeChanged
attr title "Radio mode, vector"
vector 192 Scenario.node[46].wlan[0].radio radioChannel:vector ETV
attr interpolationmode sample-hold
attr source radioChannelChanged
attr title "Radio channel, vector"
vector 193 Scenario.node[46].wlan[0].radio receptionState:vector ETV
attr interpolationmode sample-hold
attr source receptionStateChanged
attr title "Radio reception state, vector"
vector 194 Scenario.node[46].wlan[0].mac.dcf.recoveryProcedure contentionWindowChanged:vector ETV
attr interpolationmode sample-hold
attr title "contention window, vector"
vector 195 Scenario.node[47].wlan[0].radio radioMode:vector ETV
attr interpolationmode sample-hold
attr source radioModeChanged
attr title "Radio mode, vector"
vector 196 Scenario.node[47].wlan[0].radio radioChannel:vector ETV
attr interpolationmode sample-hold
attr source radioChannelChanged
attr title "Radio channel, vector"
vector 197 Scenario.node[47].wlan[0].radio receptionState:vector ETV
attr interpolationmode sample-hold
attr source receptionStateChanged
attr title "Radio reception state, vector"
vector 198 Scenario.node[47].wlan[0].mac.dcf.recoveryProcedure contentionWindowChanged:vector ETV
attr interpolationmode sample-hold
attr title "contention window, vector"
vector 199 Scenario.node[24].app[0] throughput:vector ETV
attr source throughput(packetReceived)
attr title "throughput, vector"
attr unit bps
100	314	24.1	15
99	314	24.1	1
97	314	24.1	0
97	314	24.1	0
97	314	24.1	2
98	314	24.1	3
199	626	0.1	0
199	626	0.2	0
199	626	0.3	0
199	626	0.4	0
199	626	0.5	0
199	626	0.6	0
199	626	0.7	0
199	626	0.8	0
199	626	0.9	0
199	626	1	0
199	626	1.1	0
199	626	1.2	0
199	626	1.3	0
199	626	1.4	0
199	626	1.5	0
199	626	1.6	0
199	626	1.7	0
199	626	1.8	0
199	626	1.9	0
199	626	2	0
199	626	2.1	0
199	626	2.2	0
199	626	2.3	0
199	626	2.4	0
199	626	2.5	0
199	626	2.6	0
199	626	2.7	0
199	626	2.8	0
199	626	2.9	0
199	626	3	0
199	626	3.1	0
199	626	3.2	0
199	626	3.3	0
199	626	3.4	0
199	626	3.5	0
199	626	3.6	0
199	626	3.7	0
199	626	3.8	0
199	626	3.9	0
199	626	4	0
199	626	4.1	0
199	626	4.2	0
199	626	4.3	0
199	626	4.4	0
199	626	4.5	0
199	626	4.6	0
199	626	4.7	0
199	626	4.8	0
199	626	4.9	0
199	626	5	0
199	626	5.1	0
199	626	5.2	0
199	626	5.3	0
199	626	5.4	0
199	626	5.5	0
199	626	5.6	0
199	626	5.7	0
199	626	5.8	0
199	626	5.9	0
199	626	6	0
199	626	6.1	0
199	626	6.2	0
199	626	6.3	0
199	626	6.4	0
199	626	6.5	0
199	626	6.6	0
199	626	6.7	0
199	626	6.8	0
199	626	6.9	0
199	626	7	0
199	626	7.1	0
199	626	7.2	0
199	626	7.3	0
199	626	7.4	0
199	626	7.5	0
199	626	7.6	0
199	626	7.7	0
199	626	7.8	0
199	626	7.9	0
199	626	8	0
199	626	8.1	0
199	626	8.2	0
199	626	8.3	0
199	626	8.4	0
199	626	8.5	0
199	626	8.6	0
199	626	8.7	0
199	626	8.8	0
199	626	8.9	0
199	626	9	0
199	626	9.1	0
199	626	9.2	0
199	626	9.3	0
199	626	9.4	0
199	626	9.5	0
199	626	9.6	0
199	626	9.7	0
199	626	9.8	0
199	626	9.9	0
199	626	10	0
199	626	10.1	0
199	626	10.2	0
199	626	10.3	0
199	626	10.4	0
199	626	10.5	0
199	626	10.6	0
199	626	10.7	0
199	626	10.8	0
199	626	10.9	0
199	626	11	0
199	626	11.1	0
199	626	11.2	0
199	626	11.3	0
199	626	11.4	0
199	626	11.5	0
199	626	11.6	0
199	626	11.7	0
199	626	11.8	0
199	626	11.9	0
199	626	12	0
199	626	12.1	0
199	626	12.2	0
199	626	12.3	0
199	626	12.4	0
199	626	12.5	0
199	626	12.6	0
199	626	12.7	0
199	626	12.8	0
199	626	12.9	0
199	626	13	0
199	626	13.1	0
199	626	13.2	0
199	626	13.3	0
199	626	13.4	0
199	626	13.5	0
199	626	13.6	0
199	626	13.7	0
199	626	13.8	0
199	626	13.9	0
199	626	14	0
199	626	14.1	0
199	626	14.2	0
199	626	14.3	0
199	626	14.4	0
199	626	14.5	0
199	626	14.6	0
199	626	14.7	0
199	626	14.8	0
199	626	14.9	0
199	626	15	0
199	626	15.1	0
199	626	15.2	0
199	626	15.3	0
199	626	15.4	0
199	626	15.5	0
199	626	15.6	0
199	626	15.7	0
199	626	15.8	0
199	626	15.9	0
199	626	16	0
199	626	16.1	0
199	626	16.2	0
199	626	16.3	0
199	626	16.4	0
199	626	16.5	0
199	626	16.6	0
199	626	16.7	0
199	626	16.8	0
199	626	16.9	0
199	626	17	0
199	626	17.1	0
199	626	17.2	0
199	626	17.3	0
199	626	17.4	0
199	626	17.5	0
199	626	17.6	0
199	626	17.7	0
199	626	17.8	0
199	626	17.9	0
199	626	18	0
199	626	18.1	0
199	626	18.2	0
199	626	18.3	0
199	626	18.4	0
199	626	18.5	0
199	626	18.6	0
199	626	18.7	0
199	626	18.8	0
199	626	18.9	0
199	626	19	0
199	626	19.1	0
199	626	19.2	0
199	626	19.3	0
199	626	19.4	0
199	626	19.5	0
199	626	19.6	0
199	626	19.7	0
199	626	19.8	0
199	626	19.9	0
199	626	20	0
199	626	20.1	0
199	626	20.2	0
199	626	20.3	0
199	626	20.4	0
199	626	20.5	0
199	626	20.6	0
199	626	20.7	0
199	626	20.8	0
199	626	20.9	0
199	626	21	0
199	626	21.1	0
199	626	21.2	0
199	626	21.3	0
199	626	21.4	0
199	626	21.5	0
199	626	21.6	0
199	626	21.7	0
199	626	21.8	0
199	626	21.9	0
199	626	22	0
199	626	22.1	0
199	626	22.2	0
199	626	22.3	0
199	626	22.4	0
199	626	22.5	0
199	626	22.6	0
199	626	22.7	0
199	626	22.8	0
199	626	22.9	0
199	626	23	0
199	626	23.1	0
199	626	23.2	0
199	626	23.3	0
199	626	23.4	0
199	626	23.5	0
199	626	23.6	0
199	626	23.7	0
[...]
511	1173	32.9	0
511	1173	33	0
511	1173	33.1	0
511	1173	33.2	0
511	1173	33.3	0
511	1173	33.4	0
511	1173	33.5	0
511	1173	33.6	0
511	1173	33.7	0
511	1173	33.8	0
511	1173	33.9	0
511	1173	34	0
511	1173	34.1	0
511	1173	34.2	0
511	1173	34.3	0
511	1173	34.4	0
511	1173	34.5	0
511	1173	34.6	0
511	1173	34.7	0
511	1173	34.8	0
511	1173	34.9	0
511	1173	35	0
511	1173	35.1	0
511	1173	35.2	0
511	1173	35.3	0
511	1173	35.4	0
511	1173	35.5	0
511	1173	35.6	0
511	1173	35.7	0
511	1173	35.8	0
511	1173	35.9	0
511	1173	36	0
511	1173	36.1	0
511	1173	36.2	0
511	1173	36.3	0
511	1173	36.4	0
511	1173	36.5	0
511	1173	36.6	0
511	1173	36.7	0
511	1173	36.8	0
511	1173	36.9	0
511	1173	37	0
511	1173	37.1	0
511	1173	37.2	0
511	1173	37.3	0
511	1173	37.4	0
511	1173	37.5	0
511	1173	37.6	0
511	1173	37.7	0
511	1173	37.8	0
511	1173	37.9	0
511	1173	38	0
511	1173	38.1	0
511	1173	38.2	0
511	1173	38.3	0
511	1173	38.4	0
511	1173	38.5	0
511	1173	38.6	0
511	1173	38.7	0
511	1173	38.8	0
511	1173	38.9	0
511	1173	39	0
511	1173	39.1	0
511	1173	39.2	0
511	1173	39.3	0
511	1173	39.4	0
511	1173	39.5	0
511	1173	39.6	0
511	1173	39.7	0
511	1173	39.8	0
511	1173	39.9	0
511	1173	40	0
511	1173	40.1	0
511	1173	40.2	0
511	1173	40.3	0
511	1173	40.4	0
511	1173	40.5	0
511	1173	40.6	0
511	1173	40.7	0
511	1173	40.8	0
511	1173	40.9	0
511	1173	41	0
511	1173	41.1	0
511	1173	41.2	0
511	1173	41.3	0
511	1173	41.4	0
511	1173	41.5	0
511	1173	41.6	0
511	1173	41.7	0
511	1173	41.8	0
511	1173	41.9	0
511	1173	42	0
511	1173	42.1	0
511	1173	42.2	0
511	1173	42.3	0
511	1173	42.4	0
511	1173	42.5	0
511	1173	42.6	0
511	1173	42.7	0
511	1173	42.8	0
511	1173	42.9	0
511	1173	43	0
511	1173	43.1	0
511	1173	43.2	0
511	1173	43.3	0
511	1173	43.4	0
511	1173	43.5	0
511	1173	43.6	0
511	1173	43.7	0
511	1173	43.8	0
511	1173	43.9	0
511	1173	44	0
511	1173	44.1	0
511	1173	44.2	0
511	1173	44.3	0
511	1173	44.4	0
511	1173	44.5	0
511	1173	44.6	0
511	1173	44.7	0
511	1173	44.8	0
511	1173	44.9	0
511	1173	45	0
511	1173	45.1	0
511	1173	45.2	0
511	1173	45.3	0
511	1173	45.4	0
511	1173	45.5	0
511	1173	45.6	0
511	1173	45.7	0
511	1173	45.8	0
511	1173	45.9	0
511	1173	46	0
511	1173	46.1	0
511	1173	46.2	0
511	1173	46.3	0
511	1173	46.4	0
511	1173	46.5	0
511	1173	46.6	0
511	1173	46.7	0
511	1173	46.8	0
511	1173	46.9	0
511	1173	47	0
511	1173	47.1	0
511	1173	47.2	0
511	1173	47.3	0
511	1173	47.4	0
511	1173	47.5	0
511	1173	47.6	0
511	1173	47.7	0
511	1173	47.8	0
511	1173	47.9	0
511	1173	48	0
511	1173	48.1	0
511	1173	48.2	0
511	1173	48.3	0
511	1173	48.4	0
511	1173	48.5	0
511	1173	48.6	0
511	1173	48.7	0
511	1173	48.8	0
511	1173	48.9	0
511	1173	49	0
511	1173	49.1	0
511	1173	49.2	0
511	1173	49.3	0
511	1173	49.4	0
511	1173	49.5	0
511	1173	49.6	0
511	1173	49.7	0
511	1173	49.8	0
511	1173	49.9	0
511	1173	50	0
511	1173	50.1	0
511	1173	50.2	0
511	1173	50.3	0
511	1173	50.4	0
511	1173	50.5	0
511	1173	50.6	0
511	1173	50.7	0
511	1173	50.8	0
511	1173	50.9	0
511	1173	51	0
511	1173	51.1	0
511	1173	51.2	0
511	1173	51.3	0
511	1173	51.4	0
511	1173	51.5	0
511	1173	51.6	0
511	1173	51.7	0
511	1173	51.8	0
511	1173	51.9	0
511	1173	52	0
511	1173	52.1	0
511	1173	52.2	0
511	1173	52.3	0
511	1173	52.4	0
511	1173	52.5	0
511	1173	52.6	0
511	1173	52.7	0
511	1173	52.8	0
511	1173	52.9	0
511	1173	53	0
511	1173	53.1	0
511	1173	53.2	0
511	1173	53.3	0
511	1173	53.4	0
511	1173	53.5	0
511	1173	53.6	0
511	1173	53.7	0
511	1173	53.8	0
511	1173	53.9	0
511	1173	54	0
511	1173	54.1	0
511	1173	54.2	0
511	1173	54.3	0
511	1173	54.4	0
511	1173	54.5	0
511	1173	54.6	0
511	1173	54.7	0
511	1173	54.8	0
511	1173	54.9	0
511	1173	55	0
511	1173	55.1	0
511	1173	55.2	0
511	1173	55.3	0
511	1173	55.4	0
511	1173	55.5	0
511	1173	55.6	0
511	1173	55.7	0
511	1173	55.8	0
511	1173	55.9	0
511	1173	56	0
511	1173	56.1	0
511	1173	56.2	0
511	1173	56.3	0
511	1173	56.4	0
511	1173	56.5	0
511	1173	56.6	0
511	1173	56.7	0
511	1173	56.8	0
511	1173	56.9	0
511	1173	57	0
511	1173	57.1	0
511	1173	57.2	0
511	1173	57.3	0
511	1173	57.4	0
511	1173	57.5	0
511	1173	57.6	0
511	1173	57.7	0
511	1173	57.8	0
511	1173	57.9	0
511	1173	58	0
511	1173	58.1	0
511	1173	58.2	0
511	1173	58.3	0
511	1173	58.4	0
511	1173	58.5	0
511	1173	58.6	0
511	1173	58.7	0
511	1173	58.8	0
511	1173	58.9	0
511	1173	59	0
511	1173	59.1	0
511	1173	59.2	0
511	1173	59.3	0
511	1173	59.4	0
511	1173	59.5	0
511	1173	59.6	0
511	1173	59.7	0
511	1173	59.8	0
511	1173	59.9	0
511	1173	60	0
511	1173	60.1	0
511	1173	60.2	0
511	1173	60.3	0
511	1173	60.4	0
511	1173	60.5	0
511	1173	60.6	0
511	1173	60.7	0
511	1173	60.8	0
511	1173	60.9	0
511	1173	61	0
511	1173	61.1	0
511	1173	61.2	0
511	1173	61.3	0
511	1173	61.4	0
511	1173	61.5	0
511	1173	61.6	0
511	1173	61.7	0
511	1173	61.8	0
511	1173	61.9	0
511	1173	62	0
511	1173	62.1	0
511	1173	62.2	0
511	1173	62.3	0
511	1173	62.4	0
511	1173	62.5	0
511	1173	62.6	0
511	1173	62.7	0
511	1173	62.8	0
511	1173	62.9	0
511	1173	63	0
511	1173	63.1	0
511	1173	63.2	0
511	1173	63.3	0
511	1173	63.4	0
511	1173	63.5	0
511	1173	63.6	0
511	1173	63.7	0
511	1173	63.8	0
511	1173	63.9	0
511	1173	64	0
511	1173	64.1	0
511	1173	64.2	0
511	1173	64.3	0
511	1173	64.4	0
511	1173	64.5	0
511	1173	64.6	0
511	1173	64.7	0
511	1173	64.8	0
511	1173	64.9	0
511	1173	65	0
511	1173	65.1	0
511	1173	65.2	0
511	1173	65.3	0
511	1173	65.4	0
511	1173	65.5	0
511	1173	65.6	0
511	1173	65.7	0
511	1173	65.8	0
511	1173	65.9	0
511	1173	66	0
511	1173	66.1	0
511	1173	66.2	0
511	1173	66.3	0
511	1173	66.4	0
511	1173	66.5	0
511	1173	66.6	0
511	1173	66.7	0
511	1173	66.8	0
511	1173	66.9	0
511	1173	67	0
511	1173	67.1	0
511	1173	67.2	0
511	1173	67.3	0
511	1173	67.4	0
511	1173	67.5	0
511	1173	67.6	0
511	1173	67.7	0
511	1173	67.8	0
511	1173	67.9	0
511	1173	68	0
511	1173	68.1	0
511	1173	68.2	0
511	1173	68.3	0
511	1173	68.4	0
511	1173	68.5	0
511	1173	68.6	0
511	1173	68.7	0
511	1173	68.8	0
511	1173	68.9	0
511	1173	69	0
511	1173	69.1	0
511	1173	69.2	0
511	1173	69.3	0
511	1173	69.4	0
511	1173	69.5	0
511	1173	69.6	0
511	1173	69.7	0
511	1173	69.8	0
511	1173	69.9	0
511	1173	70	0
511	1173	70.1	0
511	1173	70.2	0
511	1173	70.3	0
511	1173	70.4	0
511	1173	70.5	0
511	1173	70.6	0
511	1173	70.7	0
511	1173	70.8	0
511	1173	70.9	0
511	1173	71	0
511	1173	71.1	0
511	1173	71.2	0
511	1173	71.3	0
511	1173	71.4	0
511	1173	71.5	0
511	1173	71.6	0
511	1173	71.7	0
511	1173	71.8	0
511	1173	71.9	0
511	1173	72	0
511	1173	72.1	0
511	1173	72.2	0
511	1173	72.3	0
511	1173	72.4	0
511	1173	72.5	0
511	1173	72.6	0
511	1173	72.7	0
511	1173	72.8	0
511	1173	72.9	0
511	1173	73	0
511	1173	73.1	0
511	1173	73.2	0
511	1173	73.3	0
511	1173	73.4	0
511	1173	73.5	0
511	1173	73.6	0
511	1173	73.7	0
511	1173	73.8	0
511	1173	73.9	0
511	1173	74	0
511	1173	74.1	0
511	1173	74.2	0
511	1173	74.3	0
511	1173	74.4	0
511	1173	74.5	0
511	1173	74.6	0
511	1173	74.7	0
511	1173	74.8	0
511	1173	74.9	0
511	1173	75	0
511	1173	75.1	0
511	1173	75.2	0
511	1173	75.3	0
511	1173	75.4	0
511	1173	75.5	0
511	1173	75.6	0
511	1173	75.7	0
511	1173	75.8	0
511	1173	75.9	0
511	1173	76	0
511	1173	76.1	0
511	1173	76.2	0
511	1173	76.3	0
511	1173	76.4	0
511	1173	76.5	0
511	1173	76.6	0
511	1173	76.7	0
511	1173	76.8	0
511	1173	76.9	0
511	1173	77	0
511	1173	77.1	0
511	1173	77.2	0
511	1173	77.3	0
511	1173	77.4	0
511	1173	77.5	0
511	1173	77.6	0
511	1173	77.7	0
511	1173	77.8	0
511	1173	77.9	0
511	1173	78	0
511	1173	78.1	0
511	1173	78.2	0
511	1173	78.3	0
511	1173	78.4	0
511	1173	78.5	0
511	1173	78.6	0
511	1173	78.7	0
511	1173	78.8	0
511	1173	78.9	0
511	1173	79	0
511	1173	79.1	0
511	1173	79.2	0
511	1173	79.3	0
511	1173	79.4	0
511	1173	79.5	0
511	1173	79.6	0
511	1173	79.7	0
511	1173	79.8	0
511	1173	79.9	0
511	1173	80	0
512	1173	0.1	0
512	1173	0.2	0
512	1173	0.3	0
512	1173	0.4	0
512	1173	0.5	0
512	1173	0.6	0
512	1173	0.7	0
512	1173	0.8	0
512	1173	0.9	0
512	1173	1	0
512	1173	1.1	0
512	1173	1.2	0
512	1173	1.3	0
512	1173	1.4	0
512	1173	1.5	0
512	1173	1.6	0
512	1173	1.7	0
512	1173	1.8	0
512	1173	1.9	0
512	1173	2	0
512	1173	2.1	0
512	1173	2.2	0
512	1173	2.3	0
512	1173	2.4	0
512	1173	2.5	0
512	1173	2.6	0
512	1173	2.7	0
512	1173	2.8	0
512	1173	2.9	0
512	1173	3	0
512	1173	3.1	0
512	1173	3.2	0
512	1173	3.3	0
512	1173	3.4	0
512	1173	3.5	0
512	1173	3.6	0
512	1173	3.7	0
512	1173	3.8	0
512	1173	3.9	0
512	1173	4	0
512	1173	4.1	0
512	1173	4.2	0
512	1173	4.3	0
512	1173	4.4	0
512	1173	4.5	0
512	1173	4.6	0
512	1173	4.7	0
512	1173	4.8	0
512	1173	4.9	0
512	1173	5	0
512	1173	5.1	0
512	1173	5.2	0
512	1173	5.3	0
512	1173	5.4	0
512	1173	5.5	0
512	1173	5.6	0
512	1173	5.7	0
512	1173	5.8	0
512	1173	5.9	0
512	1173	6	0
512	1173	6.1	0
512	1173	6.2	0
512	1173	6.3	0
512	1173	6.4	0
512	1173	6.5	0
512	1173	6.6	0
512	1173	6.7	0
512	1173	6.8	0
512	1173	6.9	0
512	1173	7	0
512	1173	7.1	0
512	1173	7.2	0
512	1173	7.3	0
512	1173	7.4	0
512	1173	7.5	0
512	1173	7.6	0
512	1173	7.7	0
512	1173	7.8	0
512	1173	7.9	0
512	1173	8	0
512	1173	8.1	0
512	1173	8.2	0
512	1173	8.3	0
512	1173	8.4	0
512	1173	8.5	0
512	1173	8.6	0
512	1173	8.7	0
512	1173	8.8	0
512	1173	8.9	0
512	1173	9	0
512	1173	9.1	0
512	1173	9.2	0
512	1173	9.3	0
512	1173	9.4	0
512	1173	9.5	0
512	1173	9.6	0
512	1173	9.7	0
512	1173	9.8	0
512	1173	9.9	0
512	1173	10	0
512	1173	10.1	0
512	1173	10.2	0
512	1173	10.3	0
512	1173	10.4	0
512	1173	10.5	0
512	1173	10.6	0
512	1173	10.7	0
512	1173	10.8	0
512	1173	10.9	0
512	1173	11	0
512	1173	11.1	0
512	1173	11.2	0
512	1173	11.3	0
512	1173	11.4	0
512	1173	11.5	0
512	1173	11.6	0
512	1173	11.7	0
512	1173	11.8	0
512	1173	11.9	0
512	1173	12	0
512	1173	12.1	0
512	1173	12.2	0
512	1173	12.3	0
512	1173	12.4	0
512	1173	12.5	0
512	1173	12.6	0
512	1173	12.7	0
512	1173	12.8	0
512	1173	12.9	0
512	1173	13	0
512	1173	13.1	0
512	1173	13.2	0
512	1173	13.3	0
512	1173	13.4	0
512	1173	13.5	0
512	1173	13.6	0
512	1173	13.7	0
512	1173	13.8	0
512	1173	13.9	0
512	1173	14	0
512	1173	14.1	0
512	1173	14.2	0
512	1173	14.3	0
512	1173	14.4	0
512	1173	14.5	0
512	1173	14.6	0
512	1173	14.7	0
512	1173	14.8	0
512	1173	14.9	0
512	1173	15	0
512	1173	15.1	0
512	1173	15.2	0
512	1173	15.3	0
512	1173	15.4	0
512	1173	15.5	0
512	1173	15.6	0
512	1173	15.7	0
512	1173	15.8	0
512	1173	15.9	0
512	1173	16	0
512	1173	16.1	0
512	1173	16.2	0
512	1173	16.3	0
512	1173	16.4	0
512	1173	16.5	0
512	1173	16.6	0
512	1173	16.7	0
512	1173	16.8	0
512	1173	16.9	0
512	1173	17	0
512	1173	17.1	0
512	1173	17.2	0
512	1173	17.3	0
512	1173	17.4	0
512	1173	17.5	0
512	1173	17.6	0
512	1173	17.7	0
512	1173	17.8	0
512	1173	17.9	0
512	1173	18	0
512	1173	18.1	0
512	1173	18.2	0
512	1173	18.3	0
512	1173	18.4	0
512	1173	18.5	0
512	1173	18.6	0
512	1173	18.7	0
512	1173	18.8	0
512	1173	18.9	0
512	1173	19	0
512	1173	19.1	0
512	1173	19.2	0
512	1173	19.3	0
512	1173	19.4	0
512	1173	19.5	0
512	1173	19.6	0
512	1173	19.7	0
512	1173	19.8	0
512	1173	19.9	0
512	1173	20	0
512	1173	20.1	0
512	1173	20.2	0
512	1173	20.3	0
512	1173	20.4	0
512	1173	20.5	0
512	1173	20.6	0
512	1173	20.7	0
512	1173	20.8	0
512	1173	20.9	0
512	1173	21	0
512	1173	21.1	0
512	1173	21.2	0
512	1173	21.3	0
512	1173	21.4	0
512	1173	21.5	0
512	1173	21.6	0
512	1173	21.7	0
512	1173	21.8	0
512	1173	21.9	0
512	1173	22	0
512	1173	22.1	0
512	1173	22.2	0
512	1173	22.3	0
512	1173	22.4	0
512	1173	22.5	0
512	1173	22.6	0
512	1173	22.7	0
512	1173	22.8	0
512	1173	22.9	0
512	1173	23	0
512	1173	23.1	0
512	1173	23.2	0
512	1173	23.3	0
512	1173	23.4	0
512	1173	23.5	0
512	1173	23.6	0
512	1173	23.7	0
512	1173	23.8	0
512	1173	23.9	0
512	1173	24	0
512	1173	24.1	0
512	1173	24.2	0
512	1173	24.3	0
512	1173	24.4	0
512	1173	24.5	0
512	1173	24.6	0
512	1173	24.7	0
512	1173	24.8	0
512	1173	24.9	0
512	1173	25	0
512	1173	25.1	0
512	1173	25.2	0
512	1173	25.3	0
512	1173	25.4	0
512	1173	25.5	0
512	1173	25.6	0
512	1173	25.7	0
512	1173	25.8	0
512	1173	25.9	0
512	1173	26	0
512	1173	26.1	0
512	1173	26.2	0
512	1173	26.3	0
512	1173	26.4	0
512	1173	26.5	0
512	1173	26.6	0
512	1173	26.7	0
512	1173	26.8	0
512	1173	26.9	0
512	1173	27	0
512	1173	27.1	0
512	1173	27.2	0
512	1173	27.3	0
512	1173	27.4	0
512	1173	27.5	0
512	1173	27.6	0
512	1173	27.7	0
512	1173	27.8	0
512	1173	27.9	0
512	1173	28	0
512	1173	28.1	0
512	1173	28.2	0
512	1173	28.3	0
512	1173	28.4	0
512	1173	28.5	0
512	1173	28.6	0
512	1173	28.7	0
512	1173	28.8	0
512	1173	28.9	0
512	1173	29	0
512	1173	29.1	0
512	1173	29.2	0
512	1173	29.3	0
512	1173	29.4	0
512	1173	29.5	0
512	1173	29.6	0
512	1173	29.7	0
512	1173	29.8	0
512	1173	29.9	0
512	1173	30	0
512	1173	30.1	0
512	1173	30.2	0
512	1173	30.3	0
512	1173	30.4	0
512	1173	30.5	0
512	1173	30.6	0
512	1173	30.7	0
512	1173	30.8	0
512	1173	30.9	0
512	1173	31	0
512	1173	31.1	0
512	1173	31.2	0
512	1173	31.3	0
512	1173	31.4	0
512	1173	31.5	0
512	1173	31.6	0
512	1173	31.7	0
512	1173	31.8	0
512	1173	31.9	0
512	1173	32	0
512	1173	32.1	0
512	1173	32.2	0
512	1173	32.3	0
512	1173	32.4	0
512	1173	32.5	0
512	1173	32.6	0
512	1173	32.7	0
512	1173	32.8	0
512	1173	32.9	0
512	1173	33	0
512	1173	33.1	0
512	1173	33.2	0
512	1173	33.3	0
512	1173	33.4	0
512	1173	33.5	0
512	1173	33.6	0
512	1173	33.7	0
512	1173	33.8	0
512	1173	33.9	0
512	1173	34	0
512	1173	34.1	0
512	1173	34.2	0
512	1173	34.3	0
512	1173	34.4	0
512	1173	34.5	0
512	1173	34.6	0
512	1173	34.7	0
512	1173	34.8	0
512	1173	34.9	0
512	1173	35	0
512	1173	35.1	0
512	1173	35.2	0
512	1173	35.3	0
512	1173	35.4	0
512	1173	35.5	0
512	1173	35.6	0
512	1173	35.7	0
512	1173	35.8	0
512	1173	35.9	0
512	1173	36	0
512	1173	36.1	0
512	1173	36.2	0
512	1173	36.3	0
512	1173	36.4	0
512	1173	36.5	0
512	1173	36.6	0
512	1173	36.7	0
512	1173	36.8	0
512	1173	36.9	0
512	1173	37	0
512	1173	37.1	0
512	1173	37.2	0
512	1173	37.3	0
512	1173	37.4	0
512	1173	37.5	0
512	1173	37.6	0
512	1173	37.7	0
512	1173	37.8	0
512	1173	37.9	0
512	1173	38	0
512	1173	38.1	0
512	1173	38.2	0
512	1173	38.3	0
512	1173	38.4	0
512	1173	38.5	0
512	1173	38.6	0
512	1173	38.7	0
512	1173	38.8	0
512	1173	38.9	0
512	1173	39	0
512	1173	39.1	0
512	1173	39.2	0
512	1173	39.3	0
512	1173	39.4	0
512	1173	39.5	0
512	1173	39.6	0
512	1173	39.7	0
512	1173	39.8	0
512	1173	39.9	0
512	1173	40	0
512	1173	40.1	0
512	1173	40.2	0
512	1173	40.3	0
512	1173	40.4	0
512	1173	40.5	0
512	1173	40.6	0
512	1173	40.7	0
512	1173	40.8	0
512	1173	40.9	0
512	1173	41	0
512	1173	41.1	0
512	1173	41.2	0
512	1173	41.3	0
512	1173	41.4	0
512	1173	41.5	0
512	1173	41.6	0
512	1173	41.7	0
512	1173	41.8	0
512	1173	41.9	0
512	1173	42	0
512	1173	42.1	0
512	1173	42.2	0
512	1173	42.3	0
512	1173	42.4	0
512	1173	42.5	0
512	1173	42.6	0
512	1173	42.7	0
512	1173	42.8	0
512	1173	42.9	0
512	1173	43	0
512	1173	43.1	0
512	1173	43.2	0
512	1173	43.3	0
512	1173	43.4	0
512	1173	43.5	0
512	1173	43.6	0
512	1173	43.7	0
512	1173	43.8	0
512	1173	43.9	0
512	1173	44	0
512	1173	44.1	0
512	1173	44.2	0
512	1173	44.3	0
512	1173	44.4	0
512	1173	44.5	0
512	1173	44.6	0
512	1173	44.7	0
512	1173	44.8	0
512	1173	44.9	0
512	1173	45	0
512	1173	45.1	0
512	1173	45.2	0
512	1173	45.3	0
512	1173	45.4	0
512	1173	45.5	0
512	1173	45.6	0
512	1173	45.7	0
512	1173	45.8	0
512	1173	45.9	0
512	1173	46	0
512	1173	46.1	0
512	1173	46.2	0
512	1173	46.3	0
512	1173	46.4	0
512	1173	46.5	0
512	1173	46.6	0
512	1173	46.7	0
512	1173	46.8	0
512	1173	46.9	0
512	1173	47	0
512	1173	47.1	0
512	1173	47.2	0
512	1173	47.3	0
512	1173	47.4	0
512	1173	47.5	0
512	1173	47.6	0
512	1173	47.7	0
512	1173	47.8	0
512	1173	47.9	0
512	1173	48	0
512	1173	48.1	0
512	1173	48.2	0
512	1173	48.3	0
512	1173	48.4	0
512	1173	48.5	0
512	1173	48.6	0
512	1173	48.7	0
512	1173	48.8	0
512	1173	48.9	0
512	1173	49	0
512	1173	49.1	0
512	1173	49.2	0
512	1173	49.3	0
512	1173	49.4	0
512	1173	49.5	0
512	1173	49.6	0
512	1173	49.7	0
512	1173	49.8	0
512	1173	49.9	0
512	1173	50	0
512	1173	50.1	0
512	1173	50.2	0
512	1173	50.3	0
512	1173	50.4	0
512	1173	50.5	0
512	1173	50.6	0
512	1173	50.7	0
512	1173	50.8	0
512	1173	50.9	0
512	1173	51	0
512	1173	51.1	0
512	1173	51.2	0
512	1173	51.3	0
512	1173	51.4	0
512	1173	51.5	0
512	1173	51.6	0
512	1173	51.7	0
512	1173	51.8	0
512	1173	51.9	0
512	1173	52	0
512	1173	52.1	0
512	1173	52.2	0
512	1173	52.3	0
512	1173	52.4	0
512	1173	52.5	0
512	1173	52.6	0
512	1173	52.7	0
512	1173	52.8	0
512	1173	52.9	0
512	1173	53	0
512	1173	53.1	0
512	1173	53.2	0
512	1173	53.3	0
512	1173	53.4	0
512	1173	53.5	0
512	1173	53.6	0
512	1173	53.7	0
512	1173	53.8	0
512	1173	53.9	0
512	1173	54	0
512	1173	54.1	0
512	1173	54.2	0
512	1173	54.3	0
512	1173	54.4	0
512	1173	54.5	0
512	1173	54.6	0
512	1173	54.7	0
512	1173	54.8	0
512	1173	54.9	0
512	1173	55	0
512	1173	55.1	0
512	1173	55.2	0
512	1173	55.3	0
512	1173	55.4	0
512	1173	55.5	0
512	1173	55.6	0
512	1173	55.7	0
512	1173	55.8	0
512	1173	55.9	0
512	1173	56	0
512	1173	56.1	0
512	1173	56.2	0
512	1173	56.3	0
512	1173	56.4	0
512	1173	56.5	0
512	1173	56.6	0
512	1173	56.7	0
512	1173	56.8	0
512	1173	56.9	0
512	1173	57	0
512	1173	57.1	0
512	1173	57.2	0
512	1173	57.3	0
512	1173	57.4	0
512	1173	57.5	0
512	1173	57.6	0
512	1173	57.7	0
512	1173	57.8	0
512	1173	57.9	0
512	1173	58	0
512	1173	58.1	0
512	1173	58.2	0
512	1173	58.3	0
512	1173	58.4	0
512	1173	58.5	0
512	1173	58.6	0
512	1173	58.7	0
512	1173	58.8	0
512	1173	58.9	0
512	1173	59	0
512	1173	59.1	0
512	1173	59.2	0
512	1173	59.3	0
512	1173	59.4	0
512	1173	59.5	0
512	1173	59.6	0
512	1173	59.7	0
512	1173	59.8	0
512	1173	59.9	0
512	1173	60	0
512	1173	60.1	0
512	1173	60.2	0
512	1173	60.3	0
512	1173	60.4	0
512	1173	60.5	0
512	1173	60.6	0
512	1173	60.7	0
512	1173	60.8	0
512	1173	60.9	0
512	1173	61	0
512	1173	61.1	0
512	1173	61.2	0
512	1173	61.3	0
512	1173	61.4	0
512	1173	61.5	0
512	1173	61.6	0
512	1173	61.7	0
512	1173	61.8	0
512	1173	61.9	0
512	1173	62	0
512	1173	62.1	0
512	1173	62.2	0
512	1173	62.3	0
512	1173	62.4	0
512	1173	62.5	0
512	1173	62.6	0
512	1173	62.7	0
512	1173	62.8	0
512	1173	62.9	0
512	1173	63	0
512	1173	63.1	0
512	1173	63.2	0
512	1173	63.3	0
512	1173	63.4	0
512	1173	63.5	0
512	1173	63.6	0
512	1173	63.7	0
512	1173	63.8	0
512	1173	63.9	0
512	1173	64	0
512	1173	64.1	0
512	1173	64.2	0
512	1173	64.3	0
512	1173	64.4	0
512	1173	64.5	0
512	1173	64.6	0
512	1173	64.7	0
512	1173	64.8	0
512	1173	64.9	0
512	1173	65	0
512	1173	65.1	0
512	1173	65.2	0
512	1173	65.3	0
512	1173	65.4	0
512	1173	65.5	0
512	1173	65.6	0
512	1173	65.7	0
512	1173	65.8	0
512	1173	65.9	0
512	1173	66	0
512	1173	66.1	0
512	1173	66.2	0
512	1173	66.3	0
512	1173	66.4	0
512	1173	66.5	0
512	1173	66.6	0
512	1173	66.7	0
512	1173	66.8	0
512	1173	66.9	0
512	1173	67	0
512	1173	67.1	0
512	1173	67.2	0
512	1173	67.3	0
512	1173	67.4	0
512	1173	67.5	0
512	1173	67.6	0
512	1173	67.7	0
512	1173	67.8	0
512	1173	67.9	0
512	1173	68	0
512	1173	68.1	0
512	1173	68.2	0
512	1173	68.3	0
512	1173	68.4	0
512	1173	68.5	0
512	1173	68.6	0
512	1173	68.7	0
512	1173	68.8	0
512	1173	68.9	0
512	1173	69	0
512	1173	69.1	0
512	1173	69.2	0
512	1173	69.3	0
512	1173	69.4	0
512	1173	69.5	0
512	1173	69.6	0
512	1173	69.7	0
512	1173	69.8	0
512	1173	69.9	0
512	1173	70	0
512	1173	70.1	0
512	1173	70.2	0
512	1173	70.3	0
512	1173	70.4	0
512	1173	70.5	0
512	1173	70.6	0
512	1173	70.7	0
512	1173	70.8	0
512	1173	70.9	0
512	1173	71	0
512	1173	71.1	0
512	1173	71.2	0
512	1173	71.3	0
512	1173	71.4	0
512	1173	71.5	0
512	1173	71.6	0
512	1173	71.7	0
512	1173	71.8	0
512	1173	71.9	0
512	1173	72	0
512	1173	72.1	0
512	1173	72.2	0
512	1173	72.3	0
512	1173	72.4	0
512	1173	72.5	0
512	1173	72.6	0
512	1173	72.7	0
512	1173	72.8	0
512	1173	72.9	0
512	1173	73	0
512	1173	73.1	0
512	1173	73.2	0
512	1173	73.3	0
512	1173	73.4	0
512	1173	73.5	0
512	1173	73.6	0
512	1173	73.7	0
512	1173	73.8	0
512	1173	73.9	0
512	1173	74	0
512	1173	74.1	0
512	1173	74.2	0
512	1173	74.3	0
512	1173	74.4	0
512	1173	74.5	0
512	1173	74.6	0
512	1173	74.7	0
512	1173	74.8	0
512	1173	74.9	0
512	1173	75	0
512	1173	75.1	0
512	1173	75.2	0
512	1173	75.3	0
512	1173	75.4	0
512	1173	75.5	0
512	1173	75.6	0
512	1173	75.7	0
512	1173	75.8	0
512	1173	75.9	0
512	1173	76	0
512	1173	76.1	0
512	1173	76.2	0
512	1173	76.3	0
512	1173	76.4	0
512	1173	76.5	0
512	1173	76.6	0
512	1173	76.7	0
512	1173	76.8	0
512	1173	76.9	0
512	1173	77	0
512	1173	77.1	0
512	1173	77.2	0
512	1173	77.3	0
512	1173	77.4	0
512	1173	77.5	0
512	1173	77.6	0
512	1173	77.7	0
512	1173	77.8	0
512	1173	77.9	0
512	1173	78	0
512	1173	78.1	0
512	1173	78.2	0
512	1173	78.3	0
512	1173	78.4	0
512	1173	78.5	0
512	1173	78.6	0
512	1173	78.7	0
512	1173	78.8	0
512	1173	78.9	0
512	1173	79	0
512	1173	79.1	0
512	1173	79.2	0
512	1173	79.3	0
512	1173	79.4	0
512	1173	79.5	0
512	1173	79.6	0
512	1173	79.7	0
512	1173	79.8	0
512	1173	79.9	0
512	1173	80	0

