file 675465 1709264570                                          
version 2
run General-0-20240229-22:42:30-16692
attr configname General
attr datetime 20240229-22:42:30
attr experiment General
attr inifile omnetpp.ini
attr iterationvars ""
attr iterationvarsf ""
attr measurement ""
attr network Scenario
attr processid 16692
attr repetition 0
attr replication #0
attr resultdir results
attr runnumber 0
attr seedset 0
param *.node[*].numApps 1
param *.node[*].app[0].typename "\"vanetquevedo.veins_inet.VeinsInetSampleApplication\""
param *.node[*].app[0].interface "\"wlan0\""
param *.node[*].wlan[0].opMode "\"p\""
param *.node[*].wlan[0].radio.typename "\"Ieee80211DimensionalRadio\""
param *.node[*].wlan[0].radio.bandName "\"5.9 GHz\""
param *.node[*].wlan[0].radio.channelNumber 3
param *.node[*].wlan[0].radio.transmitter.power 20mW
param *.node[*].wlan[0].radio.bandwidth "10 MHz"
param *.node[*].wlan[*].radio.antenna.mobility.typename "\"AttachedMobility\""
param *.node[*].wlan[*].radio.antenna.mobility.mobilityModule "\"^.^.^.^.mobility\""
param *.node[*].wlan[*].radio.antenna.mobility.offsetX -2.5m
param *.node[*].wlan[*].radio.antenna.mobility.offsetZ 1.5m
param *.node[*].wlan[*].radio.antenna.mobility.constraintAreaMinX 0m
param *.node[*].wlan[*].radio.antenna.mobility.constraintAreaMaxX 0m
param *.node[*].wlan[*].radio.antenna.mobility.constraintAreaMinY 0m
param *.node[*].wlan[*].radio.antenna.mobility.constraintAreaMaxY 0m
param *.node[*].wlan[*].radio.antenna.mobility.constraintAreaMinZ 0m
param *.node[*].wlan[*].radio.antenna.mobility.constraintAreaMaxZ 0m
param *.node[*].ipv4.configurator.typename "\"HostAutoConfigurator\""
param *.node[*].ipv4.configurator.interfaces "\"wlan0\""
param *.node[*].ipv4.configurator.mcastGroups "\"224.0.0.1\""
param **.ipv4.recordRoute true
param **.transportConfigurator.recordStats true
param *.node[*].mobility.typename "\"VeinsInetMobility\""
param *.manager.updateInterval 0.1s
param *.manager.updateInterval 0.1s
param *.manager.host "\"localhost\""
param *.manager.port 9999
param *.manager.autoShutdown true
param *.manager.launchConfig "xmldoc(\"centerquevedo.launchd.xml\")"
param *.manager.moduleType "\"vanetquevedo.veins_inet.VeinsInetCar\""

vector 0 Scenario.node[0].wlan[0].radio radioMode:vector ETV
attr interpolationmode sample-hold
attr source radioModeChanged
attr title "Radio mode, vector"
vector 1 Scenario.node[0].wlan[0].radio radioChannel:vector ETV
attr interpolationmode sample-hold
attr source radioChannelChanged
attr title "Radio channel, vector"
vector 2 Scenario.node[0].wlan[0].radio receptionState:vector ETV
attr interpolationmode sample-hold
attr source receptionStateChanged
attr title "Radio reception state, vector"
vector 3 Scenario.node[0].wlan[0].mac.dcf.recoveryProcedure contentionWindowChanged:vector ETV
attr interpolationmode sample-hold
attr title "contention window, vector"
vector 4 Scenario.node[1].wlan[0].radio radioMode:vector ETV
attr interpolationmode sample-hold
attr source radioModeChanged
attr title "Radio mode, vector"
vector 5 Scenario.node[1].wlan[0].radio radioChannel:vector ETV
attr interpolationmode sample-hold
attr source radioChannelChanged
attr title "Radio channel, vector"
vector 6 Scenario.node[1].wlan[0].radio receptionState:vector ETV
attr interpolationmode sample-hold
attr source receptionStateChanged
attr title "Radio reception state, vector"
vector 7 Scenario.node[1].wlan[0].mac.dcf.recoveryProcedure contentionWindowChanged:vector ETV
attr interpolationmode sample-hold
attr title "contention window, vector"
vector 8 Scenario.node[2].wlan[0].radio radioMode:vector ETV
attr interpolationmode sample-hold
attr source radioModeChanged
attr title "Radio mode, vector"
vector 9 Scenario.node[2].wlan[0].radio radioChannel:vector ETV
attr interpolationmode sample-hold
attr source radioChannelChanged
attr title "Radio channel, vector"
vector 10 Scenario.node[2].wlan[0].radio receptionState:vector ETV
attr interpolationmode sample-hold
attr source receptionStateChanged
attr title "Radio reception state, vector"
vector 11 Scenario.node[2].wlan[0].mac.dcf.recoveryProcedure contentionWindowChanged:vector ETV
attr interpolationmode sample-hold
attr title "contention window, vector"
vector 12 Scenario.node[3].wlan[0].radio radioMode:vector ETV
attr interpolationmode sample-hold
attr source radioModeChanged
attr title "Radio mode, vector"
vector 13 Scenario.node[3].wlan[0].radio radioChannel:vector ETV
attr interpolationmode sample-hold
attr source radioChannelChanged
attr title "Radio channel, vector"
vector 14 Scenario.node[3].wlan[0].radio receptionState:vector ETV
attr interpolationmode sample-hold
attr source receptionStateChanged
attr title "Radio reception state, vector"
vector 15 Scenario.node[3].wlan[0].mac.dcf.recoveryProcedure contentionWindowChanged:vector ETV
attr interpolationmode sample-hold
attr title "contention window, vector"
vector 16 Scenario.node[4].wlan[0].radio radioMode:vector ETV
attr interpolationmode sample-hold
attr source radioModeChanged
attr title "Radio mode, vector"
vector 17 Scenario.node[4].wlan[0].radio radioChannel:vector ETV
attr interpolationmode sample-hold
attr source radioChannelChanged
attr title "Radio channel, vector"
vector 18 Scenario.node[4].wlan[0].radio receptionState:vector ETV
attr interpolationmode sample-hold
attr source receptionStateChanged
attr title "Radio reception state, vector"
vector 19 Scenario.node[4].wlan[0].mac.dcf.recoveryProcedure contentionWindowChanged:vector ETV
attr interpolationmode sample-hold
attr title "contention window, vector"
vector 20 Scenario.node[5].wlan[0].radio radioMode:vector ETV
attr interpolationmode sample-hold
attr source radioModeChanged
attr title "Radio mode, vector"
vector 21 Scenario.node[5].wlan[0].radio radioChannel:vector ETV
attr interpolationmode sample-hold
attr source radioChannelChanged
attr title "Radio channel, vector"
vector 22 Scenario.node[5].wlan[0].radio receptionState:vector ETV
attr interpolationmode sample-hold
attr source receptionStateChanged
attr title "Radio reception state, vector"
vector 23 Scenario.node[5].wlan[0].mac.dcf.recoveryProcedure contentionWindowChanged:vector ETV
attr interpolationmode sample-hold
attr title "contention window, vector"
vector 24 Scenario.node[6].wlan[0].radio radioMode:vector ETV
attr interpolationmode sample-hold
attr source radioModeChanged
attr title "Radio mode, vector"
vector 25 Scenario.node[6].wlan[0].radio radioChannel:vector ETV
attr interpolationmode sample-hold
attr source radioChannelChanged
attr title "Radio channel, vector"
vector 26 Scenario.node[6].wlan[0].radio receptionState:vector ETV
attr interpolationmode sample-hold
attr source receptionStateChanged
attr title "Radio reception state, vector"
vector 27 Scenario.node[6].wlan[0].mac.dcf.recoveryProcedure contentionWindowChanged:vector ETV
attr interpolationmode sample-hold
attr title "contention window, vector"
vector 28 Scenario.node[7].wlan[0].radio radioMode:vector ETV
attr interpolationmode sample-hold
attr source radioModeChanged
attr title "Radio mode, vector"
vector 29 Scenario.node[7].wlan[0].radio radioChannel:vector ETV
attr interpolationmode sample-hold
attr source radioChannelChanged
attr title "Radio channel, vector"
vector 30 Scenario.node[7].wlan[0].radio receptionState:vector ETV
attr interpolationmode sample-hold
attr source receptionStateChanged
attr title "Radio reception state, vector"
vector 31 Scenario.node[7].wlan[0].mac.dcf.recoveryProcedure contentionWindowChanged:vector ETV
attr interpolationmode sample-hold
attr title "contention window, vector"
vector 32 Scenario.node[8].wlan[0].radio radioMode:vector ETV
attr interpolationmode sample-hold
attr source radioModeChanged
attr title "Radio mode, vector"
vector 33 Scenario.node[8].wlan[0].radio radioChannel:vector ETV
attr interpolationmode sample-hold
attr source radioChannelChanged
attr title "Radio channel, vector"
vector 34 Scenario.node[8].wlan[0].radio receptionState:vector ETV
attr interpolationmode sample-hold
attr source receptionStateChanged
attr title "Radio reception state, vector"
vector 35 Scenario.node[8].wlan[0].mac.dcf.recoveryProcedure contentionWindowChanged:vector ETV
attr interpolationmode sample-hold
attr title "contention window, vector"
vector 36 Scenario.node[9].wlan[0].radio radioMode:vector ETV
attr interpolationmode sample-hold
attr source radioModeChanged
attr title "Radio mode, vector"
vector 37 Scenario.node[9].wlan[0].radio radioChannel:vector ETV
attr interpolationmode sample-hold
attr source radioChannelChanged
attr title "Radio channel, vector"
vector 38 Scenario.node[9].wlan[0].radio receptionState:vector ETV
attr interpolationmode sample-hold
attr source receptionStateChanged
attr title "Radio reception state, vector"
vector 39 Scenario.node[9].wlan[0].mac.dcf.recoveryProcedure contentionWindowChanged:vector ETV
attr interpolationmode sample-hold
attr title "contention window, vector"
vector 40 Scenario.node[10].wlan[0].radio radioMode:vector ETV
attr interpolationmode sample-hold
attr source radioModeChanged
attr title "Radio mode, vector"
vector 41 Scenario.node[10].wlan[0].radio radioChannel:vector ETV
attr interpolationmode sample-hold
attr source radioChannelChanged
attr title "Radio channel, vector"
vector 42 Scenario.node[10].wlan[0].radio receptionState:vector ETV
attr interpolationmode sample-hold
attr source receptionStateChanged
attr title "Radio reception state, vector"
vector 43 Scenario.node[10].wlan[0].mac.dcf.recoveryProcedure contentionWindowChanged:vector ETV
attr interpolationmode sample-hold
attr title "contention window, vector"
vector 44 Scenario.node[11].wlan[0].radio radioMode:vector ETV
attr interpolationmode sample-hold
attr source radioModeChanged
attr title "Radio mode, vector"
vector 45 Scenario.node[11].wlan[0].radio radioChannel:vector ETV
attr interpolationmode sample-hold
attr source radioChannelChanged
attr title "Radio channel, vector"
vector 46 Scenario.node[11].wlan[0].radio receptionState:vector ETV
attr interpolationmode sample-hold
attr source receptionStateChanged
attr title "Radio reception state, vector"
vector 47 Scenario.node[11].wlan[0].mac.dcf.recoveryProcedure contentionWindowChanged:vector ETV
attr interpolationmode sample-hold
attr title "contention window, vector"
vector 48 Scenario.node[12].wlan[0].radio radioMode:vector ETV
attr interpolationmode sample-hold
attr source radioModeChanged
attr title "Radio mode, vector"
vector 49 Scenario.node[12].wlan[0].radio radioChannel:vector ETV
attr interpolationmode sample-hold
attr source radioChannelChanged
attr title "Radio channel, vector"
vector 50 Scenario.node[12].wlan[0].radio receptionState:vector ETV
attr interpolationmode sample-hold
attr source receptionStateChanged
attr title "Radio reception state, vector"
vector 51 Scenario.node[12].wlan[0].mac.dcf.recoveryProcedure contentionWindowChanged:vector ETV
attr interpolationmode sample-hold
attr title "contention window, vector"
vector 52 Scenario.node[13].wlan[0].radio radioMode:vector ETV
attr interpolationmode sample-hold
attr source radioModeChanged
attr title "Radio mode, vector"
vector 53 Scenario.node[13].wlan[0].radio radioChannel:vector ETV
attr interpolationmode sample-hold
attr source radioChannelChanged
attr title "Radio channel, vector"
vector 54 Scenario.node[13].wlan[0].radio receptionState:vector ETV
attr interpolationmode sample-hold
attr source receptionStateChanged
attr title "Radio reception state, vector"
vector 55 Scenario.node[13].wlan[0].mac.dcf.recoveryProcedure contentionWindowChanged:vector ETV
attr interpolationmode sample-hold
attr title "contention window, vector"
vector 56 Scenario.node[14].wlan[0].radio radioMode:vector ETV
attr interpolationmode sample-hold
attr source radioModeChanged
attr title "Radio mode, vector"
vector 57 Scenario.node[14].wlan[0].radio radioChannel:vector ETV
attr interpolationmode sample-hold
attr source radioChannelChanged
attr title "Radio channel, vector"
vector 58 Scenario.node[14].wlan[0].radio receptionState:vector ETV
attr interpolationmode sample-hold
attr source receptionStateChanged
attr title "Radio reception state, vector"
vector 59 Scenario.node[14].wlan[0].mac.dcf.recoveryProcedure contentionWindowChanged:vector ETV
attr interpolationmode sample-hold
attr title "contention window, vector"
vector 60 Scenario.node[15].wlan[0].radio radioMode:vector ETV
attr interpolationmode sample-hold
attr source radioModeChanged
attr title "Radio mode, vector"
vector 61 Scenario.node[15].wlan[0].radio radioChannel:vector ETV
attr interpolationmode sample-hold
attr source radioChannelChanged
attr title "Radio channel, vector"
vector 62 Scenario.node[15].wlan[0].radio receptionState:vector ETV
attr interpolationmode sample-hold
attr source receptionStateChanged
attr title "Radio reception state, vector"
vector 63 Scenario.node[15].wlan[0].mac.dcf.recoveryProcedure contentionWindowChanged:vector ETV
attr interpolationmode sample-hold
attr title "contention window, vector"
vector 64 Scenario.node[16].wlan[0].radio radioMode:vector ETV
attr interpolationmode sample-hold
attr source radioModeChanged
attr title "Radio mode, vector"
vector 65 Scenario.node[16].wlan[0].radio radioChannel:vector ETV
attr interpolationmode sample-hold
attr source radioChannelChanged
attr title "Radio channel, vector"
vector 66 Scenario.node[16].wlan[0].radio receptionState:vector ETV
attr interpolationmode sample-hold
attr source receptionStateChanged
attr title "Radio reception state, vector"
vector 67 Scenario.node[16].wlan[0].mac.dcf.recoveryProcedure contentionWindowChanged:vector ETV
attr interpolationmode sample-hold
attr title "contention window, vector"
vector 68 Scenario.node[17].wlan[0].radio radioMode:vector ETV
attr interpolationmode sample-hold
attr source radioModeChanged
attr title "Radio mode, vector"
vector 69 Scenario.node[17].wlan[0].radio radioChannel:vector ETV
attr interpolationmode sample-hold
attr source radioChannelChanged
attr title "Radio channel, vector"
vector 70 Scenario.node[17].wlan[0].radio receptionState:vector ETV
attr interpolationmode sample-hold
attr source receptionStateChanged
attr title "Radio reception state, vector"
vector 71 Scenario.node[17].wlan[0].mac.dcf.recoveryProcedure contentionWindowChanged:vector ETV
attr interpolationmode sample-hold
attr title "contention window, vector"
vector 72 Scenario.node[18].wlan[0].radio radioMode:vector ETV
attr interpolationmode sample-hold
attr source radioModeChanged
attr title "Radio mode, vector"
vector 73 Scenario.node[18].wlan[0].radio radioChannel:vector ETV
attr interpolationmode sample-hold
attr source radioChannelChanged
attr title "Radio channel, vector"
vector 74 Scenario.node[18].wlan[0].radio receptionState:vector ETV
attr interpolationmode sample-hold
attr source receptionStateChanged
attr title "Radio reception state, vector"
vector 75 Scenario.node[18].wlan[0].mac.dcf.recoveryProcedure contentionWindowChanged:vector ETV
attr interpolationmode sample-hold
attr title "contention window, vector"
vector 76 Scenario.node[19].wlan[0].radio radioMode:vector ETV
attr interpolationmode sample-hold
attr source radioModeChanged
attr title "Radio mode, vector"
vector 77 Scenario.node[19].wlan[0].radio radioChannel:vector ETV
attr interpolationmode sample-hold
attr source radioChannelChanged
attr title "Radio channel, vector"
vector 78 Scenario.node[19].wlan[0].radio receptionState:vector ETV
attr interpolationmode sample-hold
attr source receptionStateChanged
attr title "Radio reception state, vector"
vector 79 Scenario.node[19].wlan[0].mac.dcf.recoveryProcedure contentionWindowChanged:vector ETV
attr interpolationmode sample-hold
attr title "contention window, vector"
vector 80 Scenario.node[3].app[0] throughput:vector ETV
attr source throughput(packetReceived)
attr title "throughput, vector"
attr unit bps
15	16163 14 41 41 3.1 3.1 1 15 15 15 225
14	16177 13 41 41 3.1 3.1 1 1 1 1 1
12	16190 39 41 41 3.1 3.1 3 0 2 2 4
13	16229 13 41 41 3.1 3.1 1 3 3 3 9
80	16242 2876 262 262 0.1 20.1 201 0 0 0 0
vector 81 Scenario.node[20].wlan[0].radio radioMode:vector ETV
attr interpolationmode sample-hold
attr source radioModeChanged
attr title "Radio mode, vector"
vector 82 Scenario.node[20].wlan[0].radio radioChannel:vector ETV
attr interpolationmode sample-hold
attr source radioChannelChanged
attr title "Radio channel, vector"
vector 83 Scenario.node[20].wlan[0].radio receptionState:vector ETV
attr interpolationmode sample-hold
attr source receptionStateChanged
attr title "Radio reception state, vector"
vector 84 Scenario.node[20].wlan[0].mac.dcf.recoveryProcedure contentionWindowChanged:vector ETV
attr interpolationmode sample-hold
attr title "contention window, vector"
vector 85 Scenario.node[21].wlan[0].radio radioMode:vector ETV
attr interpolationmode sample-hold
attr source radioModeChanged
attr title "Radio mode, vector"
vector 86 Scenario.node[21].wlan[0].radio radioChannel:vector ETV
attr interpolationmode sample-hold
attr source radioChannelChanged
attr title "Radio channel, vector"
vector 87 Scenario.node[21].wlan[0].radio receptionState:vector ETV
attr interpolationmode sample-hold
attr source receptionStateChanged
attr title "Radio reception state, vector"
vector 88 Scenario.node[21].wlan[0].mac.dcf.recoveryProcedure contentionWindowChanged:vector ETV
attr interpolationmode sample-hold
attr title "contention window, vector"
vector 89 Scenario.node[22].wlan[0].radio radioMode:vector ETV
attr interpolationmode sample-hold
attr source radioModeChanged
attr title "Radio mode, vector"
vector 90 Scenario.node[22].wlan[0].radio radioChannel:vector ETV
attr interpolationmode sample-hold
attr source radioChannelChanged
attr title "Radio channel, vector"
vector 91 Scenario.node[22].wlan[0].radio receptionState:vector ETV
attr interpolationmode sample-hold
attr source receptionStateChanged
attr title "Radio reception state, vector"
vector 92 Scenario.node[22].wlan[0].mac.dcf.recoveryProcedure contentionWindowChanged:vector ETV
attr interpolationmode sample-hold
attr title "contention window, vector"
vector 93 Scenario.node[23].wlan[0].radio radioMode:vector ETV
attr interpolationmode sample-hold
attr source radioModeChanged
attr title "Radio mode, vector"
vector 94 Scenario.node[23].wlan[0].radio radioChannel:vector ETV
attr interpolationmode sample-hold
attr source radioChannelChanged
attr title "Radio channel, vector"
vector 95 Scenario.node[23].wlan[0].radio receptionState:vector ETV
attr interpolationmode sample-hold
attr source receptionStateChanged
attr title "Radio reception state, vector"
vector 96 Scenario.node[23].wlan[0].mac.dcf.recoveryProcedure contentionWindowChanged:vector ETV
attr interpolationmode sample-hold
attr title "contention window, vector"
vector 97 Scenario.node[24].wlan[0].radio radioMode:vector ETV
attr interpolationmode sample-hold
attr source radioModeChanged
attr title "Radio mode, vector"
vector 98 Scenario.node[24].wlan[0].radio radioChannel:vector ETV
attr interpolationmode sample-hold
attr source radioChannelChanged
attr title "Radio channel, vector"
vector 99 Scenario.node[24].wlan[0].radio receptionState:vector ETV
attr interpolationmode sample-hold
attr source receptionStateChanged
attr title "Radio reception state, vector"
vector 100 Scenario.node[24].wlan[0].mac.dcf.recoveryProcedure contentionWindowChanged:vector ETV
attr interpolationmode sample-hold
attr title "contention window, vector"
vector 101 Scenario.node[25].wlan[0].radio radioMode:vector ETV
attr interpolationmode sample-hold
attr source radioModeChanged
attr title "Radio mode, vector"
vector 102 Scenario.node[25].wlan[0].radio radioChannel:vector ETV
attr interpolationmode sample-hold
attr source radioChannelChanged
attr title "Radio channel, vector"
vector 103 Scenario.node[25].wlan[0].radio receptionState:vector ETV
attr interpolationmode sample-hold
attr source receptionStateChanged
attr title "Radio reception state, vector"
vector 104 Scenario.node[25].wlan[0].mac.dcf.recoveryProcedure contentionWindowChanged:vector ETV
attr interpolationmode sample-hold
attr title "contention window, vector"
vector 105 Scenario.node[26].wlan[0].radio radioMode:vector ETV
attr interpolationmode sample-hold
attr source radioModeChanged
attr title "Radio mode, vector"
vector 106 Scenario.node[26].wlan[0].radio radioChannel:vector ETV
attr interpolationmode sample-hold
attr source radioChannelChanged
attr title "Radio channel, vector"
vector 107 Scenario.node[26].wlan[0].radio receptionState:vector ETV
attr interpolationmode sample-hold
attr source receptionStateChanged
attr title "Radio reception state, vector"
vector 108 Scenario.node[26].wlan[0].mac.dcf.recoveryProcedure contentionWindowChanged:vector ETV
attr interpolationmode sample-hold
attr title "contention window, vector"
vector 109 Scenario.node[27].wlan[0].radio radioMode:vector ETV
attr interpolationmode sample-hold
attr source radioModeChanged
attr title "Radio mode, vector"
vector 110 Scenario.node[27].wlan[0].radio radioChannel:vector ETV
attr interpolationmode sample-hold
attr source radioChannelChanged
attr title "Radio channel, vector"
vector 111 Scenario.node[27].wlan[0].radio receptionState:vector ETV
attr interpolationmode sample-hold
attr source receptionStateChanged
attr title "Radio reception state, vector"
vector 112 Scenario.node[27].wlan[0].mac.dcf.recoveryProcedure contentionWindowChanged:vector ETV
attr interpolationmode sample-hold
attr title "contention window, vector"
vector 113 Scenario.node[28].wlan[0].radio radioMode:vector ETV
attr interpolationmode sample-hold
attr source radioModeChanged
attr title "Radio mode, vector"
vector 114 Scenario.node[28].wlan[0].radio radioChannel:vector ETV
attr interpolationmode sample-hold
attr source radioChannelChanged
attr title "Radio channel, vector"
vector 115 Scenario.node[28].wlan[0].radio receptionState:vector ETV
attr interpolationmode sample-hold
attr source receptionStateChanged
attr title "Radio reception state, vector"
vector 116 Scenario.node[28].wlan[0].mac.dcf.recoveryProcedure contentionWindowChanged:vector ETV
attr interpolationmode sample-hold
attr title "contention window, vector"
vector 117 Scenario.node[29].wlan[0].radio radioMode:vector ETV
attr interpolationmode sample-hold
attr source radioModeChanged
attr title "Radio mode, vector"
vector 118 Scenario.node[29].wlan[0].radio radioChannel:vector ETV
attr interpolationmode sample-hold
attr source radioChannelChanged
attr title "Radio channel, vector"
vector 119 Scenario.node[29].wlan[0].radio receptionState:vector ETV
attr interpolationmode sample-hold
attr source receptionStateChanged
attr title "Radio reception state, vector"
vector 120 Scenario.node[29].wlan[0].mac.dcf.recoveryProcedure contentionWindowChanged:vector ETV
attr interpolationmode sample-hold
attr title "contention window, vector"
vector 121 Scenario.node[30].wlan[0].radio radioMode:vector ETV
attr interpolationmode sample-hold
attr source radioModeChanged
attr title "Radio mode, vector"
vector 122 Scenario.node[30].wlan[0].radio radioChannel:vector ETV
attr interpolationmode sample-hold
attr source radioChannelChanged
attr title "Radio channel, vector"
vector 123 Scenario.node[30].wlan[0].radio receptionState:vector ETV
attr interpolationmode sample-hold
attr source receptionStateChanged
attr title "Radio reception state, vector"
vector 124 Scenario.node[30].wlan[0].mac.dcf.recoveryProcedure contentionWindowChanged:vector ETV
attr interpolationmode sample-hold
attr title "contention window, vector"
vector 125 Scenario.node[31].wlan[0].radio radioMode:vector ETV
attr interpolationmode sample-hold
attr source radioModeChanged
attr title "Radio mode, vector"
vector 126 Scenario.node[31].wlan[0].radio radioChannel:vector ETV
attr interpolationmode sample-hold
attr source radioChannelChanged
attr title "Radio channel, vector"
vector 127 Scenario.node[31].wlan[0].radio receptionState:vector ETV
attr interpolationmode sample-hold
attr source receptionStateChanged
attr title "Radio reception state, vector"
vector 128 Scenario.node[31].wlan[0].mac.dcf.recoveryProcedure contentionWindowChanged:vector ETV
attr interpolationmode sample-hold
attr title "contention window, vector"
vector 129 Scenario.node[32].wlan[0].radio radioMode:vector ETV
attr interpolationmode sample-hold
attr source radioModeChanged
attr title "Radio mode, vector"
vector 130 Scenario.node[32].wlan[0].radio radioChannel:vector ETV
attr interpolationmode sample-hold
attr source radioChannelChanged
attr title "Radio channel, vector"
vector 131 Scenario.node[32].wlan[0].radio receptionState:vector ETV
attr interpolationmode sample-hold
attr source receptionStateChanged
attr title "Radio reception state, vector"
vector 132 Scenario.node[32].wlan[0].mac.dcf.recoveryProcedure contentionWindowChanged:vector ETV
attr interpolationmode sample-hold
attr title "contention window, vector"
vector 133 Scenario.node[33].wlan[0].radio radioMode:vector ETV
attr interpolationmode sample-hold
attr source radioModeChanged
attr title "Radio mode, vector"
vector 134 Scenario.node[33].wlan[0].radio radioChannel:vector ETV
attr interpolationmode sample-hold
attr source radioChannelChanged
attr title "Radio channel, vector"
vector 135 Scenario.node[33].wlan[0].radio receptionState:vector ETV
attr interpolationmode sample-hold
attr source receptionStateChanged
attr title "Radio reception state, vector"
vector 136 Scenario.node[33].wlan[0].mac.dcf.recoveryProcedure contentionWindowChanged:vector ETV
attr interpolationmode sample-hold
attr title "contention window, vector"
vector 137 Scenario.node[34].wlan[0].radio radioMode:vector ETV
attr interpolationmode sample-hold
attr source radioModeChanged
attr title "Radio mode, vector"
vector 138 Scenario.node[34].wlan[0].radio radioChannel:vector ETV
attr interpolationmode sample-hold
attr source radioChannelChanged
attr title "Radio channel, vector"
vector 139 Scenario.node[34].wlan[0].radio receptionState:vector ETV
attr interpolationmode sample-hold
attr source receptionStateChanged
attr title "Radio reception state, vector"
vector 140 Scenario.node[34].wlan[0].mac.dcf.recoveryProcedure contentionWindowChanged:vector ETV
attr interpolationmode sample-hold
attr title "contention window, vector"
vector 141 Scenario.node[35].wlan[0].radio radioMode:vector ETV
attr interpolationmode sample-hold
attr source radioModeChanged
attr title "Radio mode, vector"
vector 142 Scenario.node[35].wlan[0].radio radioChannel:vector ETV
attr interpolationmode sample-hold
attr source radioChannelChanged
attr title "Radio channel, vector"
vector 143 Scenario.node[35].wlan[0].radio receptionState:vector ETV
attr interpolationmode sample-hold
attr source receptionStateChanged
attr title "Radio reception state, vector"
vector 144 Scenario.node[35].wlan[0].mac.dcf.recoveryProcedure contentionWindowChanged:vector ETV
attr interpolationmode sample-hold
attr title "contention window, vector"
vector 145 Scenario.node[36].wlan[0].radio radioMode:vector ETV
attr interpolationmode sample-hold
attr source radioModeChanged
attr title "Radio mode, vector"
vector 146 Scenario.node[36].wlan[0].radio radioChannel:vector ETV
attr interpolationmode sample-hold
attr source radioChannelChanged
attr title "Radio channel, vector"
vector 147 Scenario.node[36].wlan[0].radio receptionState:vector ETV
attr interpolationmode sample-hold
attr source receptionStateChanged
attr title "Radio reception state, vector"
vector 148 Scenario.node[36].wlan[0].mac.dcf.recoveryProcedure contentionWindowChanged:vector ETV
attr interpolationmode sample-hold
attr title "contention window, vector"
vector 149 Scenario.node[1].app[0] throughput:vector ETV
attr source throughput(packetReceived)
attr title "throughput, vector"
attr unit bps
7	31094 13 15 15 1.1 1.1 1 15 15 15 225
6	31107 12 15 15 1.1 1.1 1 1 1 1 1
4	31119 36 15 15 1.1 1.1 3 0 2 2 4
5	31155 12 15 15 1.1 1.1 1 3 3 3 9
149	31167 5763 483 483 0.1 37.1 371 0 0 0 0
vector 150 Scenario.node[37].wlan[0].radio radioMode:vector ETV
attr interpolationmode sample-hold
attr source radioModeChanged
attr title "Radio mode, vector"
vector 151 Scenario.node[37].wlan[0].radio radioChannel:vector ETV
attr interpolationmode sample-hold
attr source radioChannelChanged
attr title "Radio channel, vector"
vector 152 Scenario.node[37].wlan[0].radio receptionState:vector ETV
attr interpolationmode sample-hold
attr source receptionStateChanged
attr title "Radio reception state, vector"
vector 153 Scenario.node[37].wlan[0].mac.dcf.recoveryProcedure contentionWindowChanged:vector ETV
attr interpolationmode sample-hold
attr title "contention window, vector"
vector 154 Scenario.node[38].wlan[0].radio radioMode:vector ETV
attr interpolationmode sample-hold
attr source radioModeChanged
attr title "Radio mode, vector"
vector 155 Scenario.node[38].wlan[0].radio radioChannel:vector ETV
attr interpolationmode sample-hold
attr source radioChannelChanged
attr title "Radio channel, vector"
vector 156 Scenario.node[38].wlan[0].radio receptionState:vector ETV
attr interpolationmode sample-hold
attr source receptionStateChanged
attr title "Radio reception state, vector"
vector 157 Scenario.node[38].wlan[0].mac.dcf.recoveryProcedure contentionWindowChanged:vector ETV
attr interpolationmode sample-hold
attr title "contention window, vector"
vector 158 Scenario.node[39].wlan[0].radio radioMode:vector ETV
attr interpolationmode sample-hold
attr source radioModeChanged
attr title "Radio mode, vector"
vector 159 Scenario.node[39].wlan[0].radio radioChannel:vector ETV
attr interpolationmode sample-hold
attr source radioChannelChanged
attr title "Radio channel, vector"
vector 160 Scenario.node[39].wlan[0].radio receptionState:vector ETV
attr interpolationmode sample-hold
attr source receptionStateChanged
attr title "Radio reception state, vector"
vector 161 Scenario.node[39].wlan[0].mac.dcf.recoveryProcedure contentionWindowChanged:vector ETV
attr interpolationmode sample-hold
attr title "contention window, vector"
vector 162 Scenario.node[40].wlan[0].radio radioMode:vector ETV
attr interpolationmode sample-hold
attr source radioModeChanged
attr title "Radio mode, vector"
vector 163 Scenario.node[40].wlan[0].radio radioChannel:vector ETV
attr interpolationmode sample-hold
attr source radioChannelChanged
attr title "Radio channel, vector"
vector 164 Scenario.node[40].wlan[0].radio receptionState:vector ETV
attr interpolationmode sample-hold
attr source receptionStateChanged
attr title "Radio reception state, vector"
vector 165 Scenario.node[40].wlan[0].mac.dcf.recoveryProcedure contentionWindowChanged:vector ETV
attr interpolationmode sample-hold
attr title "contention window, vector"
vector 166 Scenario.node[12].app[0] throughput:vector ETV
attr source throughput(packetReceived)
attr title "throughput, vector"
attr unit bps
51	39865 16 178 178 14.1 14.1 1 15 15 15 225
50	39881 15 178 178 14.1 14.1 1 1 1 1 1
48	39896 45 178 178 14.1 14.1 3 0 2 2 4
49	39941 15 178 178 14.1 14.1 1 3 3 3 9
166	39956 6395 535 535 0.1 41.1 411 0 0 0 0
vector 167 Scenario.node[41].wlan[0].radio radioMode:vector ETV
attr interpolationmode sample-hold
attr source radioModeChanged
attr title "Radio mode, vector"
vector 168 Scenario.node[41].wlan[0].radio radioChannel:vector ETV
attr interpolationmode sample-hold
attr source radioChannelChanged
attr title "Radio channel, vector"
vector 169 Scenario.node[41].wlan[0].radio receptionState:vector ETV
attr interpolationmode sample-hold
attr source receptionStateChanged
attr title "Radio reception state, vector"
vector 170 Scenario.node[41].wlan[0].mac.dcf.recoveryProcedure contentionWindowChanged:vector ETV
attr interpolationmode sample-hold
attr title "contention window, vector"
vector 171 Scenario.node[9].app[0] throughput:vector ETV
attr source throughput(packetReceived)
attr title "throughput, vector"
attr unit bps
39	47194 15 116 116 9.1 9.1 1 15 15 15 225
38	47209 14 116 116 9.1 9.1 1 1 1 1 1
36	47223 42 116 116 9.1 9.1 3 0 2 2 4
37	47265 14 116 116 9.1 9.1 1 3 3 3 9
171	47279 6553 548 548 0.1 42.1 421 0 0 0 0
vector 172 Scenario.node[42].wlan[0].radio radioMode:vector ETV
attr interpolationmode sample-hold
attr source radioModeChanged
attr title "Radio mode, vector"
vector 173 Scenario.node[42].wlan[0].radio radioChannel:vector ETV
attr interpolationmode sample-hold
attr source radioChannelChanged
attr title "Radio channel, vector"
vector 174 Scenario.node[42].wlan[0].radio receptionState:vector ETV
attr interpolationmode sample-hold
attr source receptionStateChanged
attr title "Radio reception state, vector"
vector 175 Scenario.node[42].wlan[0].mac.dcf.recoveryProcedure contentionWindowChanged:vector ETV
attr interpolationmode sample-hold
attr title "contention window, vector"
vector 176 Scenario.node[43].wlan[0].radio radioMode:vector ETV
attr interpolationmode sample-hold
attr source radioModeChanged
attr title "Radio mode, vector"
vector 177 Scenario.node[43].wlan[0].radio radioChannel:vector ETV
attr interpolationmode sample-hold
attr source radioChannelChanged
attr title "Radio channel, vector"
vector 178 Scenario.node[43].wlan[0].radio receptionState:vector ETV
attr interpolationmode sample-hold
attr source receptionStateChanged
attr title "Radio reception state, vector"
vector 179 Scenario.node[43].wlan[0].mac.dcf.recoveryProcedure contentionWindowChanged:vector ETV
attr interpolationmode sample-hold
attr title "contention window, vector"
vector 180 Scenario.node[8].app[0] throughput:vector ETV
attr source throughput(packetReceived)
attr title "throughput, vector"
attr unit bps
35	55372 15 116 116 9.1 9.1 1 15 15 15 225
34	55387 14 116 116 9.1 9.1 1 1 1 1 1
32	55401 42 116 116 9.1 9.1 3 0 2 2 4
33	55443 14 116 116 9.1 9.1 1 3 3 3 9
180	55457 6869 574 574 0.1 44.1 441 0 0 0 0
vector 181 Scenario.node[44].wlan[0].radio radioMode:vector ETV
attr interpolationmode sample-hold
attr source radioModeChanged
attr title "Radio mode, vector"
vector 182 Scenario.node[44].wlan[0].radio radioChannel:vector ETV
attr interpolationmode sample-hold
attr source radioChannelChanged
attr title "Radio channel, vector"
vector 183 Scenario.node[44].wlan[0].radio receptionState:vector ETV
attr interpolationmode sample-hold
attr source receptionStateChanged
attr title "Radio reception state, vector"
vector 184 Scenario.node[44].wlan[0].mac.dcf.recoveryProcedure contentionWindowChanged:vector ETV
attr interpolationmode sample-hold
attr title "contention window, vector"
vector 185 Scenario.node[18].app[0] throughput:vector ETV
attr source throughput(packetReceived)
attr title "throughput, vector"
attr unit bps
75	63170 16 236 236 18.1 18.1 1 15 15 15 225
74	63186 15 236 236 18.1 18.1 1 1 1 1 1
72	63201 45 236 236 18.1 18.1 3 0 2 2 4
73	63246 15 236 236 18.1 18.1 1 3 3 3 9
185	63261 7027 587 587 0.1 45.1 451 0 0 0 0
vector 186 Scenario.node[45].wlan[0].radio radioMode:vector ETV
attr interpolationmode sample-hold
attr source radioModeChanged
attr title "Radio mode, vector"
vector 187 Scenario.node[45].wlan[0].radio radioChannel:vector ETV
attr interpolationmode sample-hold
attr source radioChannelChanged
attr title "Radio channel, vector"
vector 188 Scenario.node[45].wlan[0].radio receptionState:vector ETV
attr interpolationmode sample-hold
attr source receptionStateChanged
attr title "Radio reception state, vector"
vector 189 Scenario.node[45].wlan[0].mac.dcf.recoveryProcedure contentionWindowChanged:vector ETV
attr interpolationmode sample-hold
attr title "contention window, vector"
vector 190 Scenario.node[26].app[0] throughput:vector ETV
attr source throughput(packetReceived)
attr title "throughput, vector"
attr unit bps
108	71132 17 340 340 26.1 26.1 1 15 15 15 225
107	71149 16 340 340 26.1 26.1 1 1 1 1 1
105	71165 48 340 340 26.1 26.1 3 0 2 2 4
106	71213 16 340 340 26.1 26.1 1 3 3 3 9
190	71229 7343 610 610 0.1 47.1 471 0 0 0 0
vector 191 Scenario.node[46].wlan[0].radio radioMode:vector ETV
attr interpolationmode sample-hold
attr source radioModeChanged
attr title "Radio mode, vector"
vector 192 Scenario.node[46].wlan[0].radio radioChannel:vector ETV
attr interpolationmode sample-hold
attr source radioChannelChanged
attr title "Radio channel, vector"
vector 193 Scenario.node[46].wlan[0].radio receptionState:vector ETV
attr interpolationmode sample-hold
attr source receptionStateChanged
attr title "Radio reception state, vector"
vector 194 Scenario.node[46].wlan[0].mac.dcf.recoveryProcedure contentionWindowChanged:vector ETV
attr interpolationmode sample-hold
attr title "contention window, vector"
vector 195 Scenario.node[47].wlan[0].radio radioMode:vector ETV
attr interpolationmode sample-hold
attr source radioModeChanged
attr title "Radio mode, vector"
vector 196 Scenario.node[47].wlan[0].radio radioChannel:vector ETV
attr interpolationmode sample-hold
attr source radioChannelChanged
attr title "Radio channel, vector"
vector 197 Scenario.node[47].wlan[0].radio receptionState:vector ETV
attr interpolationmode sample-hold
attr source receptionStateChanged
attr title "Radio reception state, vector"
vector 198 Scenario.node[47].wlan[0].mac.dcf.recoveryProcedure contentionWindowChanged:vector ETV
attr interpolationmode sample-hold
attr title "contention window, vector"
vector 199 Scenario.node[24].app[0] throughput:vector ETV
attr source throughput(packetReceived)
attr title "throughput, vector"
attr unit bps
100	80113 17 314 314 24.1 24.1 1 15 15 15 225
99	80130 15 314 314 24.1 24.1 1 1 1 1 1
97	80145 45 314 314 24.1 24.1 3 0 2 2 4
98	80190 15 314 314 24.1 24.1 1 3 3 3 9
199	80205 7501 626 626 0.1 48.1 481 0 0 0 0
vector 200 Scenario.node[34].app[0] throughput:vector ETV
attr source throughput(packetReceived)
attr title "throughput, vector"
attr unit bps
140	87853 17 441 441 34.1 34.1 1 15 15 15 225
139	87870 16 441 441 34.1 34.1 1 1 1 1 1
137	87886 48 441 441 34.1 34.1 3 0 2 2 4
138	87934 16 441 441 34.1 34.1 1 3 3 3 9
200	87950 7659 636 636 0.1 49.1 491 0 0 0 0
vector 201 Scenario.node[48].wlan[0].radio radioMode:vector ETV
attr interpolationmode sample-hold
attr source radioModeChanged
attr title "Radio mode, vector"
vector 202 Scenario.node[48].wlan[0].radio radioChannel:vector ETV
attr interpolationmode sample-hold
attr source radioChannelChanged
attr title "Radio channel, vector"
vector 203 Scenario.node[48].wlan[0].radio receptionState:vector ETV
attr interpolationmode sample-hold
attr source receptionStateChanged
attr title "Radio reception state, vector"
vector 204 Scenario.node[48].wlan[0].mac.dcf.recoveryProcedure contentionWindowChanged:vector ETV
attr interpolationmode sample-hold
attr title "contention window, vector"
vector 205 Scenario.node[14].app[0] throughput:vector ETV
attr source throughput(packetReceived)
attr title "throughput, vector"
attr unit bps
59	96453 16 204 204 16.1 16.1 1 15 15 15 225
58	96469 15 204 204 16.1 16.1 1 1 1 1 1
56	96484 45 204 204 16.1 16.1 3 0 2 2 4
57	96529 15 204 204 16.1 16.1 1 3 3 3 9
205	96544 7817 649 649 0.1 50.1 501 0 0 0 0
vector 206 Scenario.node[16].app[0] throughput:vector ETV
attr source throughput(packetReceived)
attr title "throughput, vector"
attr unit bps
67	104508 16 204 204 16.1 16.1 1 15 15 15 225
66	104524 15 204 204 16.1 16.1 1 1 1 1 1
64	104539 45 204 204 16.1 16.1 3 0 2 2 4
65	104584 15 204 204 16.1 16.1 1 3 3 3 9
206	104599 7817 649 649 0.1 50.1 501 0 0 0 0
vector 207 Scenario.node[49].wlan[0].radio radioMode:vector ETV
attr interpolationmode sample-hold
attr source radioModeChanged
attr title "Radio mode, vector"
vector 208 Scenario.node[49].wlan[0].radio radioChannel:vector ETV
attr interpolationmode sample-hold
attr source radioChannelChanged
attr title "Radio channel, vector"
vector 209 Scenario.node[49].wlan[0].radio receptionState:vector ETV
attr interpolationmode sample-hold
attr source receptionStateChanged
attr title "Radio reception state, vector"
vector 210 Scenario.node[49].wlan[0].mac.dcf.recoveryProcedure contentionWindowChanged:vector ETV
attr interpolationmode sample-hold
attr title "contention window, vector"
vector 211 Scenario.node[50].wlan[0].radio radioMode:vector ETV
attr interpolationmode sample-hold
attr source radioModeChanged
attr title "Radio mode, vector"
vector 212 Scenario.node[50].wlan[0].radio radioChannel:vector ETV
attr interpolationmode sample-hold
attr source radioChannelChanged
attr title "Radio channel, vector"
vector 213 Scenario.node[50].wlan[0].radio receptionState:vector ETV
attr interpolationmode sample-hold
attr source receptionStateChanged
attr title "Radio reception state, vector"
vector 214 Scenario.node[50].wlan[0].mac.dcf.recoveryProcedure contentionWindowChanged:vector ETV
attr interpolationmode sample-hold
attr title "contention window, vector"
vector 215 Scenario.node[6].app[0] throughput:vector ETV
attr source throughput(packetReceived)
attr title "throughput, vector"
attr unit bps
27	113956 14 80 80 6.1 6.1 1 15 15 15 225
26	113970 13 80 80 6.1 6.1 1 1 1 1 1
24	113983 39 80 80 6.1 6.1 3 0 2 2 4
25	114022 13 80 80 6.1 6.1 1 3 3 3 9
215	114035 8449 695 695 0.1 54.1 541 0 0 0 0
vector 216 Scenario.node[7].app[0] throughput:vector ETV
attr source throughput(packetReceived)
attr title "throughput, vector"
attr unit bps
31	122630 15 103 103 8.1 8.1 1 15 15 15 225
30	122645 14 103 103 8.1 8.1 1 1 1 1 1
28	122659 42 103 103 8.1 8.1 3 0 2 2 4
29	122701 14 103 103 8.1 8.1 1 3 3 3 9
216	122715 9239 745 745 0.1 59.1 591 0 0 0 0
vector 217 Scenario.node[28].app[0] throughput:vector ETV
attr source throughput(packetReceived)
attr title "throughput, vector"
attr unit bps
116	132101 17 366 366 28.1 28.1 1 15 15 15 225
115	132118 16 366 366 28.1 28.1 1 1 1 1 1
113	132134 48 366 366 28.1 28.1 3 0 2 2 4
114	132182 16 366 366 28.1 28.1 1 3 3 3 9
217	132198 9239 745 745 0.1 59.1 591 0 0 0 0
vector 218 Scenario.node[0].app[0] packetSent:vector(packetBytes) ETV
attr interpolationmode none
attr source packetSent
attr title "packets sent, vector(packetBytes)"
vector 219 Scenario.node[0].udp packetSent:vector(packetBytes) ETV
attr interpolationmode none
attr source packetSent
attr title "packets sent, vector(packetBytes)"
vector 220 Scenario.node[0].lo[0].lo rcvdPkFromHl:vector(packetBytes) ETV
attr interpolationmode none
attr source packetReceivedFromUpper
attr title "packets received from higher layer, vector(packetBytes)"
vector 221 Scenario.node[0].lo[0].lo passedUpPk:vector(packetBytes) ETV
attr interpolationmode none
attr source packetSentToUpper
attr title "packets passed to higher layer, vector(packetBytes)"
vector 222 Scenario.node[0].wlan[0].mac packetReceivedFromUpper:vector(packetBytes) ETV
attr interpolationmode none
attr title "packets received from upper layer, vector(packetBytes)"
vector 223 Scenario.node[0].wlan[0].mac.dcf.channelAccess.pendingQueue packetPushed:vector(packetBytes) ETV
attr interpolationmode none
attr title "packet pushed, vector(packetBytes)"
vector 224 Scenario.node[0].wlan[0].mac.dcf.channelAccess.pendingQueue queueLength:vector ETV
attr interpolationmode sample-hold
attr source "count(packetPushed) - count(packetPopped) - count(packetRemoved) - count(packetDropped)"
attr title "queue length, vector"
vector 225 Scenario.node[0].wlan[0].mac.dcf.channelAccess.contention backoffPeriodGenerated:vector ETV
attr interpolationmode none
attr title "backoff periods, vector"
vector 226 Scenario.node[0].wlan[0].mac.dcf.channelAccess.contention backoffActive:vector ETV
attr interpolationmode sample-hold
attr source count(backoffStarted)-count(backoffStopped)
attr title "backoff active, vector"
vector 227 Scenario.node[0].udp packetReceived:vector(packetBytes) ETV
attr interpolationmode none
attr source packetReceived
attr title "packets received, vector(packetBytes)"
vector 228 Scenario.node[0].udp passedUpPk:vector(count) ETV
attr interpolationmode none
attr source packetSentToUpper
attr title "packets passed up, vector(count)"
vector 229 Scenario.node[0].app[0] packetReceived:vector(packetBytes) ETV
attr interpolationmode none
attr source packetReceived
attr title "packets received, vector(packetBytes)"
vector 230 Scenario.node[0].app[0] throughput:vector ETV
attr source throughput(packetReceived)
attr title "throughput, vector"
attr unit bps
vector 231 Scenario.node[0].app[0] rcvdPkLifetime:vector ETV
attr interpolationmode none
attr source dataAge(packetReceived)
attr title "received packet lifetime, vector"
attr unit s
vector 232 Scenario.node[0].wlan[0].mac.dcf.channelAccess.pendingQueue packetPopped:vector(packetBytes) ETV
attr interpolationmode none
attr title "packet popped, vector(packetBytes)"
vector 233 Scenario.node[0].wlan[0].mac.dcf.channelAccess.pendingQueue queueingTime:vector ETV
attr interpolationmode none
attr source queueingTime(packetPopped)
attr title "queueing times, vector"
attr unit s
vector 234 Scenario.node[0].wlan[0].mac.dcf.channelAccess.inProgressFrames queueLength:vector ETV
attr interpolationmode sample-hold
attr source "count(packetEnqueued) - count(packetDequeued)"
attr title "queue length, vector"
vector 235 Scenario.node[0].wlan[0].mac.dcf datarateSelected:vector ETV
attr interpolationmode none
attr title "datarates selected, vector"
vector 236 Scenario.node[0].wlan[0].mac packetSentToLower:vector(packetBytes) ETV
attr interpolationmode none
attr title "packets sent to lower layer, vector(packetBytes)"
vector 237 Scenario.node[0].wlan[0].mac.dcf frameSequenceActive:vector ETV
attr interpolationmode sample-hold
attr source count(frameSequenceStarted)-count(frameSequenceFinished)
attr title "frame sequence active, vector"
vector 238 Scenario.node[0].wlan[0].radio transmissionState:vector ETV
attr interpolationmode sample-hold
attr source transmissionStateChanged
attr title "Radio transmission state, vector"
vector 239 Scenario.node[0].wlan[0].mac.dcf packetSentToPeer:vector(packetBytes) ETV
attr interpolationmode none
attr title "packets sent, vector(packetBytes)"
vector 240 Scenario.node[0].wlan[0].mac.dcf packetSentToPeerMulticast:vector(packetBytes) ETV
attr interpolationmode none
attr source ieee80211Multicast(packetSentToPeer)
attr title "packets sent: multicast, vector(packetBytes)"
vector 241 Scenario.node[0].wlan[0].mac.dcf packetSentToPeerWithoutRetry:vector(packetBytes) ETV
attr interpolationmode none
attr source ieee80211NotRetry(packetSentToPeer)
attr title "packets sent: without retry, vector(packetBytes)"
vector 242 Scenario.node[0].wlan[0].mac.dcf.channelAccess.inProgressFrames queueingTime:vector ETV
attr interpolationmode none
attr source queueingTime(packetDequeued)
attr title "queueing times, vector"
vector 243 Scenario.node[33].wlan[0].mac packetReceivedFromLower:vector(packetBytes) ETV
attr interpolationmode none
attr title "packets received from lower layer, vector(packetBytes)"
vector 244 Scenario.node[33].wlan[0].mac.dcf packetReceivedFromPeer:vector(packetBytes) ETV
attr interpolationmode none
attr title "packets received, vector(packetBytes)"
vector 245 Scenario.node[33].wlan[0].mac.dcf packetReceivedFromPeerMulticast:vector(packetBytes) ETV
attr interpolationmode none
attr source ieee80211Multicast(packetReceivedFromPeer)
attr title "packets received: multicast, vector(packetBytes)"
vector 246 Scenario.node[33].wlan[0].mac.dcf packetReceivedFromPeerWithoutRetry:vector(packetBytes) ETV
attr interpolationmode none
attr source ieee80211NotRetry(packetReceivedFromPeer)
attr title "packets received: without retry, vector(packetBytes)"
vector 247 Scenario.node[33].wlan[0].mac packetSentToUpper:vector(packetBytes) ETV
attr interpolationmode none
attr title "packets sent to upper layer, vector(packetBytes)"
vector 248 Scenario.node[33].udp packetReceived:vector(packetBytes) ETV
attr interpolationmode none
attr source packetReceived
attr title "packets received, vector(packetBytes)"
vector 249 Scenario.node[33].udp passedUpPk:vector(count) ETV
attr interpolationmode none
attr source packetSentToUpper
attr title "packets passed up, vector(count)"
vector 250 Scenario.node[33].app[0] packetReceived:vector(packetBytes) ETV
attr interpolationmode none
attr source packetReceived
attr title "packets received, vector(packetBytes)"
vector 251 Scenario.node[33].app[0] throughput:vector ETV
attr source throughput(packetReceived)
attr title "throughput, vector"
attr unit bps
vector 252 Scenario.node[33].app[0] rcvdPkLifetime:vector ETV
attr interpolationmode none
attr source dataAge(packetReceived)
attr title "received packet lifetime, vector"
attr unit s
vector 253 Scenario.node[49].wlan[0].mac packetReceivedFromLower:vector(packetBytes) ETV
attr interpolationmode none
attr title "packets received from lower layer, vector(packetBytes)"
vector 254 Scenario.node[49].wlan[0].mac.dcf packetReceivedFromPeer:vector(packetBytes) ETV
attr interpolationmode none
attr title "packets received, vector(packetBytes)"
vector 255 Scenario.node[49].wlan[0].mac.dcf packetReceivedFromPeerMulticast:vector(packetBytes) ETV
attr interpolationmode none
attr source ieee80211Multicast(packetReceivedFromPeer)
attr title "packets received: multicast, vector(packetBytes)"
vector 256 Scenario.node[49].wlan[0].mac.dcf packetReceivedFromPeerWithoutRetry:vector(packetBytes) ETV
attr interpolationmode none
attr source ieee80211NotRetry(packetReceivedFromPeer)
attr title "packets received: without retry, vector(packetBytes)"
vector 257 Scenario.node[49].wlan[0].mac packetSentToUpper:vector(packetBytes) ETV
attr interpolationmode none
attr title "packets sent to upper layer, vector(packetBytes)"
vector 258 Scenario.node[49].udp packetReceived:vector(packetBytes) ETV
attr interpolationmode none
attr source packetReceived
attr title "packets received, vector(packetBytes)"
vector 259 Scenario.node[49].udp passedUpPk:vector(count) ETV
attr interpolationmode none
attr source packetSentToUpper
attr title "packets passed up, vector(count)"
vector 260 Scenario.node[49].app[0] packetReceived:vector(packetBytes) ETV
attr interpolationmode none
attr source packetReceived
attr title "packets received, vector(packetBytes)"
vector 261 Scenario.node[49].app[0] throughput:vector ETV
attr source throughput(packetReceived)
attr title "throughput, vector"
attr unit bps
vector 262 Scenario.node[49].app[0] rcvdPkLifetime:vector ETV
attr interpolationmode none
attr source dataAge(packetReceived)
attr title "received packet lifetime, vector"
attr unit s
vector 263 Scenario.node[2].wlan[0].mac packetReceivedFromLower:vector(packetBytes) ETV
attr interpolationmode none
attr title "packets received from lower layer, vector(packetBytes)"
vector 264 Scenario.node[2].wlan[0].mac.dcf packetReceivedFromPeer:vector(packetBytes) ETV
attr interpolationmode none
attr title "packets received, vector(packetBytes)"
vector 265 Scenario.node[2].wlan[0].mac.dcf packetReceivedFromPeerMulticast:vector(packetBytes) ETV
attr interpolationmode none
attr source ieee80211Multicast(packetReceivedFromPeer)
attr title "packets received: multicast, vector(packetBytes)"
vector 266 Scenario.node[2].wlan[0].mac.dcf packetReceivedFromPeerWithoutRetry:vector(packetBytes) ETV
attr interpolationmode none
attr source ieee80211NotRetry(packetReceivedFromPeer)
attr title "packets received: without retry, vector(packetBytes)"
vector 267 Scenario.node[2].wlan[0].mac packetSentToUpper:vector(packetBytes) ETV
attr interpolationmode none
attr title "packets sent to upper layer, vector(packetBytes)"
vector 268 Scenario.node[2].udp packetReceived:vector(packetBytes) ETV
attr interpolationmode none
attr source packetReceived
attr title "packets received, vector(packetBytes)"
vector 269 Scenario.node[2].udp passedUpPk:vector(count) ETV
attr interpolationmode none
attr source packetSentToUpper
attr title "packets passed up, vector(count)"
vector 270 Scenario.node[2].app[0] packetReceived:vector(packetBytes) ETV
attr interpolationmode none
attr source packetReceived
attr title "packets received, vector(packetBytes)"
vector 271 Scenario.node[2].app[0] throughput:vector ETV
attr source throughput(packetReceived)
attr title "throughput, vector"
attr unit bps
vector 272 Scenario.node[2].app[0] rcvdPkLifetime:vector ETV
attr interpolationmode none
attr source dataAge(packetReceived)
attr title "received packet lifetime, vector"
attr unit s
vector 273 Scenario.node[40].wlan[0].mac packetReceivedFromLower:vector(packetBytes) ETV
attr interpolationmode none
attr title "packets received from lower layer, vector(packetBytes)"
vector 274 Scenario.node[40].wlan[0].mac.dcf packetReceivedFromPeer:vector(packetBytes) ETV
attr interpolationmode none
attr title "packets received, vector(packetBytes)"
vector 275 Scenario.node[40].wlan[0].mac.dcf packetReceivedFromPeerMulticast:vector(packetBytes) ETV
attr interpolationmode none
attr source ieee80211Multicast(packetReceivedFromPeer)
attr title "packets received: multicast, vector(packetBytes)"
vector 276 Scenario.node[40].wlan[0].mac.dcf packetReceivedFromPeerWithoutRetry:vector(packetBytes) ETV
attr interpolationmode none
attr source ieee80211NotRetry(packetReceivedFromPeer)
attr title "packets received: without retry, vector(packetBytes)"
vector 277 Scenario.node[40].wlan[0].mac packetSentToUpper:vector(packetBytes) ETV
attr interpolationmode none
attr title "packets sent to upper layer, vector(packetBytes)"
vector 278 Scenario.node[40].udp packetReceived:vector(packetBytes) ETV
attr interpolationmode none
attr source packetReceived
attr title "packets received, vector(packetBytes)"
vector 279 Scenario.node[40].udp passedUpPk:vector(count) ETV
attr interpolationmode none
attr source packetSentToUpper
attr title "packets passed up, vector(count)"
vector 280 Scenario.node[40].app[0] packetReceived:vector(packetBytes) ETV
attr interpolationmode none
attr source packetReceived
attr title "packets received, vector(packetBytes)"
vector 281 Scenario.node[40].app[0] throughput:vector ETV
attr source throughput(packetReceived)
attr title "throughput, vector"
attr unit bps
vector 282 Scenario.node[40].app[0] rcvdPkLifetime:vector ETV
attr interpolationmode none
attr source dataAge(packetReceived)
attr title "received packet lifetime, vector"
attr unit s
vector 283 Scenario.node[35].wlan[0].mac packetReceivedFromLower:vector(packetBytes) ETV
attr interpolationmode none
attr title "packets received from lower layer, vector(packetBytes)"
vector 284 Scenario.node[35].wlan[0].mac.dcf packetReceivedFromPeer:vector(packetBytes) ETV
attr interpolationmode none
attr title "packets received, vector(packetBytes)"
vector 285 Scenario.node[35].wlan[0].mac.dcf packetReceivedFromPeerMulticast:vector(packetBytes) ETV
attr interpolationmode none
attr source ieee80211Multicast(packetReceivedFromPeer)
attr title "packets received: multicast, vector(packetBytes)"
vector 286 Scenario.node[35].wlan[0].mac.dcf packetReceivedFromPeerWithoutRetry:vector(packetBytes) ETV
attr interpolationmode none
attr source ieee80211NotRetry(packetReceivedFromPeer)
attr title "packets received: without retry, vector(packetBytes)"
vector 287 Scenario.node[35].wlan[0].mac packetSentToUpper:vector(packetBytes) ETV
attr interpolationmode none
attr title "packets sent to upper layer, vector(packetBytes)"
vector 288 Scenario.node[35].udp packetReceived:vector(packetBytes) ETV
attr interpolationmode none
attr source packetReceived
attr title "packets received, vector(packetBytes)"
vector 289 Scenario.node[35].udp passedUpPk:vector(count) ETV
attr interpolationmode none
attr source packetSentToUpper
attr title "packets passed up, vector(count)"
vector 290 Scenario.node[35].app[0] packetReceived:vector(packetBytes) ETV
attr interpolationmode none
attr source packetReceived
attr title "packets received, vector(packetBytes)"
vector 291 Scenario.node[35].app[0] throughput:vector ETV
attr source throughput(packetReceived)
attr title "throughput, vector"
attr unit bps
vector 292 Scenario.node[35].app[0] rcvdPkLifetime:vector ETV
attr interpolationmode none
attr source dataAge(packetReceived)
attr title "received packet lifetime, vector"
attr unit s
vector 293 Scenario.node[10].wlan[0].mac packetReceivedFromLower:vector(packetBytes) ETV
attr interpolationmode none
attr title "packets received from lower layer, vector(packetBytes)"
vector 294 Scenario.node[10].wlan[0].mac.dcf packetReceivedFromPeer:vector(packetBytes) ETV
attr interpolationmode none
attr title "packets received, vector(packetBytes)"
vector 295 Scenario.node[10].wlan[0].mac.dcf packetReceivedFromPeerMulticast:vector(packetBytes) ETV
attr interpolationmode none
attr source ieee80211Multicast(packetReceivedFromPeer)
attr title "packets received: multicast, vector(packetBytes)"
vector 296 Scenario.node[10].wlan[0].mac.dcf packetReceivedFromPeerWithoutRetry:vector(packetBytes) ETV
attr interpolationmode none
attr source ieee80211NotRetry(packetReceivedFromPeer)
attr title "packets received: without retry, vector(packetBytes)"
vector 297 Scenario.node[10].wlan[0].mac packetSentToUpper:vector(packetBytes) ETV
attr interpolationmode none
attr title "packets sent to upper layer, vector(packetBytes)"
vector 298 Scenario.node[10].udp packetReceived:vector(packetBytes) ETV
attr interpolationmode none
attr source packetReceived
attr title "packets received, vector(packetBytes)"
vector 299 Scenario.node[10].udp passedUpPk:vector(count) ETV
attr interpolationmode none
attr source packetSentToUpper
attr title "packets passed up, vector(count)"
vector 300 Scenario.node[10].app[0] packetReceived:vector(packetBytes) ETV
attr interpolationmode none
attr source packetReceived
attr title "packets received, vector(packetBytes)"
vector 301 Scenario.node[10].app[0] throughput:vector ETV
attr source throughput(packetReceived)
attr title "throughput, vector"
attr unit bps
vector 302 Scenario.node[10].app[0] rcvdPkLifetime:vector ETV
attr interpolationmode none
attr source dataAge(packetReceived)
attr title "received packet lifetime, vector"
attr unit s
vector 303 Scenario.node[19].wlan[0].mac packetReceivedFromLower:vector(packetBytes) ETV
attr interpolationmode none
attr title "packets received from lower layer, vector(packetBytes)"
vector 304 Scenario.node[19].wlan[0].mac.dcf packetReceivedFromPeer:vector(packetBytes) ETV
attr interpolationmode none
attr title "packets received, vector(packetBytes)"
vector 305 Scenario.node[19].wlan[0].mac.dcf packetReceivedFromPeerMulticast:vector(packetBytes) ETV
attr interpolationmode none
attr source ieee80211Multicast(packetReceivedFromPeer)
attr title "packets received: multicast, vector(packetBytes)"
vector 306 Scenario.node[19].wlan[0].mac.dcf packetReceivedFromPeerWithoutRetry:vector(packetBytes) ETV
attr interpolationmode none
attr source ieee80211NotRetry(packetReceivedFromPeer)
attr title "packets received: without retry, vector(packetBytes)"
vector 307 Scenario.node[19].wlan[0].mac packetSentToUpper:vector(packetBytes) ETV
attr interpolationmode none
attr title "packets sent to upper layer, vector(packetBytes)"
vector 308 Scenario.node[19].udp packetReceived:vector(packetBytes) ETV
attr interpolationmode none
attr source packetReceived
attr title "packets received, vector(packetBytes)"
vector 309 Scenario.node[19].udp passedUpPk:vector(count) ETV
attr interpolationmode none
attr source packetSentToUpper
attr title "packets passed up, vector(count)"
vector 310 Scenario.node[19].app[0] packetReceived:vector(packetBytes) ETV
attr interpolationmode none
attr source packetReceived
attr title "packets received, vector(packetBytes)"
vector 311 Scenario.node[19].app[0] throughput:vector ETV
attr source throughput(packetReceived)
attr title "throughput, vector"
attr unit bps
vector 312 Scenario.node[19].app[0] rcvdPkLifetime:vector ETV
attr interpolationmode none
attr source dataAge(packetReceived)
attr title "received packet lifetime, vector"
attr unit s
vector 313 Scenario.node[4].wlan[0].mac packetReceivedFromLower:vector(packetBytes) ETV
attr interpolationmode none
attr title "packets received from lower layer, vector(packetBytes)"
vector 314 Scenario.node[4].wlan[0].mac.dcf packetReceivedFromPeer:vector(packetBytes) ETV
attr interpolationmode none
attr title "packets received, vector(packetBytes)"
vector 315 Scenario.node[4].wlan[0].mac.dcf packetReceivedFromPeerMulticast:vector(packetBytes) ETV
attr interpolationmode none
attr source ieee80211Multicast(packetReceivedFromPeer)
attr title "packets received: multicast, vector(packetBytes)"
vector 316 Scenario.node[4].wlan[0].mac.dcf packetReceivedFromPeerWithoutRetry:vector(packetBytes) ETV
attr interpolationmode none
attr source ieee80211NotRetry(packetReceivedFromPeer)
attr title "packets received: without retry, vector(packetBytes)"
vector 317 Scenario.node[4].wlan[0].mac packetSentToUpper:vector(packetBytes) ETV
attr interpolationmode none
attr title "packets sent to upper layer, vector(packetBytes)"
vector 318 Scenario.node[4].udp packetReceived:vector(packetBytes) ETV
attr interpolationmode none
attr source packetReceived
attr title "packets received, vector(packetBytes)"
vector 319 Scenario.node[4].udp passedUpPk:vector(count) ETV
attr interpolationmode none
attr source packetSentToUpper
attr title "packets passed up, vector(count)"
vector 320 Scenario.node[4].app[0] packetReceived:vector(packetBytes) ETV
attr interpolationmode none
attr source packetReceived
attr title "packets received, vector(packetBytes)"
vector 321 Scenario.node[4].app[0] throughput:vector ETV
attr source throughput(packetReceived)
attr title "throughput, vector"
attr unit bps
vector 322 Scenario.node[4].app[0] rcvdPkLifetime:vector ETV
attr interpolationmode none
attr source dataAge(packetReceived)
attr title "received packet lifetime, vector"
attr unit s
vector 323 Scenario.node[37].wlan[0].mac packetReceivedFromLower:vector(packetBytes) ETV
attr interpolationmode none
attr title "packets received from lower layer, vector(packetBytes)"
vector 324 Scenario.node[37].wlan[0].mac.dcf packetReceivedFromPeer:vector(packetBytes) ETV
attr interpolationmode none
attr title "packets received, vector(packetBytes)"
vector 325 Scenario.node[37].wlan[0].mac.dcf packetReceivedFromPeerMulticast:vector(packetBytes) ETV
attr interpolationmode none
attr source ieee80211Multicast(packetReceivedFromPeer)
attr title "packets received: multicast, vector(packetBytes)"
vector 326 Scenario.node[37].wlan[0].mac.dcf packetReceivedFromPeerWithoutRetry:vector(packetBytes) ETV
attr interpolationmode none
attr source ieee80211NotRetry(packetReceivedFromPeer)
attr title "packets received: without retry, vector(packetBytes)"
vector 327 Scenario.node[37].wlan[0].mac packetSentToUpper:vector(packetBytes) ETV
attr interpolationmode none
attr title "packets sent to upper layer, vector(packetBytes)"
vector 328 Scenario.node[37].udp packetReceived:vector(packetBytes) ETV
attr interpolationmode none
attr source packetReceived
attr title "packets received, vector(packetBytes)"
vector 329 Scenario.node[37].udp passedUpPk:vector(count) ETV
attr interpolationmode none
attr source packetSentToUpper
attr title "packets passed up, vector(count)"
vector 330 Scenario.node[37].app[0] packetReceived:vector(packetBytes) ETV
attr interpolationmode none
attr source packetReceived
attr title "packets received, vector(packetBytes)"
vector 331 Scenario.node[37].app[0] throughput:vector ETV
attr source throughput(packetReceived)
attr title "throughput, vector"
attr unit bps
vector 332 Scenario.node[37].app[0] rcvdPkLifetime:vector ETV
attr interpolationmode none
attr source dataAge(packetReceived)
attr title "received packet lifetime, vector"
attr unit s
vector 333 Scenario.node[46].wlan[0].mac packetReceivedFromLower:vector(packetBytes) ETV
attr interpolationmode none
attr title "packets received from lower layer, vector(packetBytes)"
vector 334 Scenario.node[46].wlan[0].mac.dcf packetReceivedFromPeer:vector(packetBytes) ETV
attr interpolationmode none
attr title "packets received, vector(packetBytes)"
vector 335 Scenario.node[46].wlan[0].mac.dcf packetReceivedFromPeerMulticast:vector(packetBytes) ETV
attr interpolationmode none
attr source ieee80211Multicast(packetReceivedFromPeer)
attr title "packets received: multicast, vector(packetBytes)"
vector 336 Scenario.node[46].wlan[0].mac.dcf packetReceivedFromPeerWithoutRetry:vector(packetBytes) ETV
attr interpolationmode none
attr source ieee80211NotRetry(packetReceivedFromPeer)
attr title "packets received: without retry, vector(packetBytes)"
vector 337 Scenario.node[46].wlan[0].mac packetSentToUpper:vector(packetBytes) ETV
attr interpolationmode none
attr title "packets sent to upper layer, vector(packetBytes)"
vector 338 Scenario.node[46].udp packetReceived:vector(packetBytes) ETV
attr interpolationmode none
attr source packetReceived
attr title "packets received, vector(packetBytes)"
vector 339 Scenario.node[46].udp passedUpPk:vector(count) ETV
attr interpolationmode none
attr source packetSentToUpper
attr title "packets passed up, vector(count)"
vector 340 Scenario.node[46].app[0] packetReceived:vector(packetBytes) ETV
attr interpolationmode none
attr source packetReceived
attr title "packets received, vector(packetBytes)"
vector 341 Scenario.node[46].app[0] throughput:vector ETV
attr source throughput(packetReceived)
attr title "throughput, vector"
attr unit bps
vector 342 Scenario.node[46].app[0] rcvdPkLifetime:vector ETV
attr interpolationmode none
attr source dataAge(packetReceived)
attr title "received packet lifetime, vector"
attr unit s
vector 343 Scenario.node[47].wlan[0].mac packetReceivedFromLower:vector(packetBytes) ETV
attr interpolationmode none
attr title "packets received from lower layer, vector(packetBytes)"
vector 344 Scenario.node[47].wlan[0].mac.dcf packetReceivedFromPeer:vector(packetBytes) ETV
attr interpolationmode none
attr title "packets received, vector(packetBytes)"
vector 345 Scenario.node[47].wlan[0].mac.dcf packetReceivedFromPeerMulticast:vector(packetBytes) ETV
attr interpolationmode none
attr source ieee80211Multicast(packetReceivedFromPeer)
attr title "packets received: multicast, vector(packetBytes)"
vector 346 Scenario.node[47].wlan[0].mac.dcf packetReceivedFromPeerWithoutRetry:vector(packetBytes) ETV
attr interpolationmode none
attr source ieee80211NotRetry(packetReceivedFromPeer)
attr title "packets received: without retry, vector(packetBytes)"
vector 347 Scenario.node[47].wlan[0].mac packetSentToUpper:vector(packetBytes) ETV
attr interpolationmode none
attr title "packets sent to upper layer, vector(packetBytes)"
vector 348 Scenario.node[47].udp packetReceived:vector(packetBytes) ETV
attr interpolationmode none
attr source packetReceived
attr title "packets received, vector(packetBytes)"
vector 349 Scenario.node[47].udp passedUpPk:vector(count) ETV
attr interpolationmode none
attr source packetSentToUpper
attr title "packets passed up, vector(count)"
vector 350 Scenario.node[47].app[0] packetReceived:vector(packetBytes) ETV
attr interpolationmode none
attr source packetReceived
attr title "packets received, vector(packetBytes)"
vector 351 Scenario.node[47].app[0] throughput:vector ETV
attr source throughput(packetReceived)
attr title "throughput, vector"
attr unit bps
vector 352 Scenario.node[47].app[0] rcvdPkLifetime:vector ETV
attr interpolationmode none
attr source dataAge(packetReceived)
attr title "received packet lifetime, vector"
attr unit s
vector 353 Scenario.node[27].wlan[0].mac packetReceivedFromLower:vector(packetBytes) ETV
attr interpolationmode none
attr title "packets received from lower layer, vector(packetBytes)"
vector 354 Scenario.node[27].wlan[0].mac.dcf packetReceivedFromPeer:vector(packetBytes) ETV
attr interpolationmode none
attr title "packets received, vector(packetBytes)"
vector 355 Scenario.node[27].wlan[0].mac.dcf packetReceivedFromPeerMulticast:vector(packetBytes) ETV
attr interpolationmode none
attr source ieee80211Multicast(packetReceivedFromPeer)
attr title "packets received: multicast, vector(packetBytes)"
vector 356 Scenario.node[27].wlan[0].mac.dcf packetReceivedFromPeerWithoutRetry:vector(packetBytes) ETV
attr interpolationmode none
attr source ieee80211NotRetry(packetReceivedFromPeer)
attr title "packets received: without retry, vector(packetBytes)"
vector 357 Scenario.node[27].wlan[0].mac packetSentToUpper:vector(packetBytes) ETV
attr interpolationmode none
attr title "packets sent to upper layer, vector(packetBytes)"
vector 358 Scenario.node[27].udp packetReceived:vector(packetBytes) ETV
attr interpolationmode none
attr source packetReceived
attr title "packets received, vector(packetBytes)"
vector 359 Scenario.node[27].udp passedUpPk:vector(count) ETV
attr interpolationmode none
attr source packetSentToUpper
attr title "packets passed up, vector(count)"
vector 360 Scenario.node[27].app[0] packetReceived:vector(packetBytes) ETV
attr interpolationmode none
attr source packetReceived
attr title "packets received, vector(packetBytes)"
vector 361 Scenario.node[27].app[0] throughput:vector ETV
attr source throughput(packetReceived)
attr title "throughput, vector"
attr unit bps
vector 362 Scenario.node[27].app[0] rcvdPkLifetime:vector ETV
attr interpolationmode none
attr source dataAge(packetReceived)
attr title "received packet lifetime, vector"
attr unit s
vector 363 Scenario.node[29].wlan[0].mac packetReceivedFromLower:vector(packetBytes) ETV
attr interpolationmode none
attr title "packets received from lower layer, vector(packetBytes)"
vector 364 Scenario.node[29].wlan[0].mac.dcf packetReceivedFromPeer:vector(packetBytes) ETV
attr interpolationmode none
attr title "packets received, vector(packetBytes)"
vector 365 Scenario.node[29].wlan[0].mac.dcf packetReceivedFromPeerMulticast:vector(packetBytes) ETV
attr interpolationmode none
attr source ieee80211Multicast(packetReceivedFromPeer)
attr title "packets received: multicast, vector(packetBytes)"
vector 366 Scenario.node[29].wlan[0].mac.dcf packetReceivedFromPeerWithoutRetry:vector(packetBytes) ETV
attr interpolationmode none
attr source ieee80211NotRetry(packetReceivedFromPeer)
attr title "packets received: without retry, vector(packetBytes)"
vector 367 Scenario.node[29].wlan[0].mac packetSentToUpper:vector(packetBytes) ETV
attr interpolationmode none
attr title "packets sent to upper layer, vector(packetBytes)"
vector 368 Scenario.node[29].udp packetReceived:vector(packetBytes) ETV
attr interpolationmode none
attr source packetReceived
attr title "packets received, vector(packetBytes)"
vector 369 Scenario.node[29].udp passedUpPk:vector(count) ETV
attr interpolationmode none
attr source packetSentToUpper
attr title "packets passed up, vector(count)"
vector 370 Scenario.node[29].app[0] packetReceived:vector(packetBytes) ETV
attr interpolationmode none
attr source packetReceived
attr title "packets received, vector(packetBytes)"
vector 371 Scenario.node[29].app[0] throughput:vector ETV
attr source throughput(packetReceived)
attr title "throughput, vector"
attr unit bps
vector 372 Scenario.node[29].app[0] rcvdPkLifetime:vector ETV
attr interpolationmode none
attr source dataAge(packetReceived)
attr title "received packet lifetime, vector"
attr unit s
vector 373 Scenario.node[25].wlan[0].mac packetReceivedFromLower:vector(packetBytes) ETV
attr interpolationmode none
attr title "packets received from lower layer, vector(packetBytes)"
vector 374 Scenario.node[25].wlan[0].mac.dcf packetReceivedFromPeer:vector(packetBytes) ETV
attr interpolationmode none
attr title "packets received, vector(packetBytes)"
vector 375 Scenario.node[25].wlan[0].mac.dcf packetReceivedFromPeerMulticast:vector(packetBytes) ETV
attr interpolationmode none
attr source ieee80211Multicast(packetReceivedFromPeer)
attr title "packets received: multicast, vector(packetBytes)"
vector 376 Scenario.node[25].wlan[0].mac.dcf packetReceivedFromPeerWithoutRetry:vector(packetBytes) ETV
attr interpolationmode none
attr source ieee80211NotRetry(packetReceivedFromPeer)
attr title "packets received: without retry, vector(packetBytes)"
vector 377 Scenario.node[25].wlan[0].mac packetSentToUpper:vector(packetBytes) ETV
attr interpolationmode none
attr title "packets sent to upper layer, vector(packetBytes)"
vector 378 Scenario.node[25].udp packetReceived:vector(packetBytes) ETV
attr interpolationmode none
attr source packetReceived
attr title "packets received, vector(packetBytes)"
vector 379 Scenario.node[25].udp passedUpPk:vector(count) ETV
attr interpolationmode none
attr source packetSentToUpper
attr title "packets passed up, vector(count)"
vector 380 Scenario.node[25].app[0] packetReceived:vector(packetBytes) ETV
attr interpolationmode none
attr source packetReceived
attr title "packets received, vector(packetBytes)"
vector 381 Scenario.node[25].app[0] throughput:vector ETV
attr source throughput(packetReceived)
attr title "throughput, vector"
attr unit bps
vector 382 Scenario.node[25].app[0] rcvdPkLifetime:vector ETV
attr interpolationmode none
attr source dataAge(packetReceived)
attr title "received packet lifetime, vector"
attr unit s
vector 383 Scenario.node[21].wlan[0].mac packetReceivedFromLower:vector(packetBytes) ETV
attr interpolationmode none
attr title "packets received from lower layer, vector(packetBytes)"
vector 384 Scenario.node[21].wlan[0].mac.dcf packetReceivedFromPeer:vector(packetBytes) ETV
attr interpolationmode none
attr title "packets received, vector(packetBytes)"
vector 385 Scenario.node[21].wlan[0].mac.dcf packetReceivedFromPeerMulticast:vector(packetBytes) ETV
attr interpolationmode none
attr source ieee80211Multicast(packetReceivedFromPeer)
attr title "packets received: multicast, vector(packetBytes)"
vector 386 Scenario.node[21].wlan[0].mac.dcf packetReceivedFromPeerWithoutRetry:vector(packetBytes) ETV
attr interpolationmode none
attr source ieee80211NotRetry(packetReceivedFromPeer)
attr title "packets received: without retry, vector(packetBytes)"
vector 387 Scenario.node[21].wlan[0].mac packetSentToUpper:vector(packetBytes) ETV
attr interpolationmode none
attr title "packets sent to upper layer, vector(packetBytes)"
vector 388 Scenario.node[21].udp packetReceived:vector(packetBytes) ETV
attr interpolationmode none
attr source packetReceived
attr title "packets received, vector(packetBytes)"
vector 389 Scenario.node[21].udp passedUpPk:vector(count) ETV
attr interpolationmode none
attr source packetSentToUpper
attr title "packets passed up, vector(count)"
vector 390 Scenario.node[21].app[0] packetReceived:vector(packetBytes) ETV
attr interpolationmode none
attr source packetReceived
attr title "packets received, vector(packetBytes)"
vector 391 Scenario.node[21].app[0] throughput:vector ETV
attr source throughput(packetReceived)
attr title "throughput, vector"
attr unit bps
vector 392 Scenario.node[21].app[0] rcvdPkLifetime:vector ETV
attr interpolationmode none
attr source dataAge(packetReceived)
attr title "received packet lifetime, vector"
attr unit s
vector 393 Scenario.node[38].wlan[0].mac packetReceivedFromLower:vector(packetBytes) ETV
attr interpolationmode none
attr title "packets received from lower layer, vector(packetBytes)"
vector 394 Scenario.node[38].wlan[0].mac.dcf packetReceivedFromPeer:vector(packetBytes) ETV
attr interpolationmode none
attr title "packets received, vector(packetBytes)"
vector 395 Scenario.node[38].wlan[0].mac.dcf packetReceivedFromPeerMulticast:vector(packetBytes) ETV
attr interpolationmode none
attr source ieee80211Multicast(packetReceivedFromPeer)
attr title "packets received: multicast, vector(packetBytes)"
vector 396 Scenario.node[38].wlan[0].mac.dcf packetReceivedFromPeerWithoutRetry:vector(packetBytes) ETV
attr interpolationmode none
attr source ieee80211NotRetry(packetReceivedFromPeer)
attr title "packets received: without retry, vector(packetBytes)"
vector 397 Scenario.node[38].wlan[0].mac packetSentToUpper:vector(packetBytes) ETV
attr interpolationmode none
attr title "packets sent to upper layer, vector(packetBytes)"
vector 398 Scenario.node[38].udp packetReceived:vector(packetBytes) ETV
attr interpolationmode none
attr source packetReceived
attr title "packets received, vector(packetBytes)"
vector 399 Scenario.node[38].udp passedUpPk:vector(count) ETV
attr interpolationmode none
attr source packetSentToUpper
attr title "packets passed up, vector(count)"
vector 400 Scenario.node[38].app[0] packetReceived:vector(packetBytes) ETV
attr interpolationmode none
attr source packetReceived
attr title "packets received, vector(packetBytes)"
vector 401 Scenario.node[38].app[0] throughput:vector ETV
attr source throughput(packetReceived)
attr title "throughput, vector"
attr unit bps
vector 402 Scenario.node[38].app[0] rcvdPkLifetime:vector ETV
attr interpolationmode none
attr source dataAge(packetReceived)
attr title "received packet lifetime, vector"
attr unit s
vector 403 Scenario.node[30].wlan[0].mac packetReceivedFromLower:vector(packetBytes) ETV
attr interpolationmode none
attr title "packets received from lower layer, vector(packetBytes)"
vector 404 Scenario.node[30].wlan[0].mac.dcf packetReceivedFromPeer:vector(packetBytes) ETV
attr interpolationmode none
attr title "packets received, vector(packetBytes)"
vector 405 Scenario.node[30].wlan[0].mac.dcf packetReceivedFromPeerMulticast:vector(packetBytes) ETV
attr interpolationmode none
attr source ieee80211Multicast(packetReceivedFromPeer)
attr title "packets received: multicast, vector(packetBytes)"
vector 406 Scenario.node[30].wlan[0].mac.dcf packetReceivedFromPeerWithoutRetry:vector(packetBytes) ETV
attr interpolationmode none
attr source ieee80211NotRetry(packetReceivedFromPeer)
attr title "packets received: without retry, vector(packetBytes)"
vector 407 Scenario.node[30].wlan[0].mac packetSentToUpper:vector(packetBytes) ETV
attr interpolationmode none
attr title "packets sent to upper layer, vector(packetBytes)"
vector 408 Scenario.node[30].udp packetReceived:vector(packetBytes) ETV
attr interpolationmode none
attr source packetReceived
attr title "packets received, vector(packetBytes)"
vector 409 Scenario.node[30].udp passedUpPk:vector(count) ETV
attr interpolationmode none
attr source packetSentToUpper
attr title "packets passed up, vector(count)"
vector 410 Scenario.node[30].app[0] packetReceived:vector(packetBytes) ETV
attr interpolationmode none
attr source packetReceived
attr title "packets received, vector(packetBytes)"
vector 411 Scenario.node[30].app[0] throughput:vector ETV
attr source throughput(packetReceived)
attr title "throughput, vector"
attr unit bps
vector 412 Scenario.node[30].app[0] rcvdPkLifetime:vector ETV
attr interpolationmode none
attr source dataAge(packetReceived)
attr title "received packet lifetime, vector"
attr unit s
vector 413 Scenario.node[36].wlan[0].mac packetReceivedFromLower:vector(packetBytes) ETV
attr interpolationmode none
attr title "packets received from lower layer, vector(packetBytes)"
vector 414 Scenario.node[36].wlan[0].mac.dcf packetReceivedFromPeer:vector(packetBytes) ETV
attr interpolationmode none
attr title "packets received, vector(packetBytes)"
vector 415 Scenario.node[36].wlan[0].mac.dcf packetReceivedFromPeerMulticast:vector(packetBytes) ETV
attr interpolationmode none
attr source ieee80211Multicast(packetReceivedFromPeer)
attr title "packets received: multicast, vector(packetBytes)"
vector 416 Scenario.node[36].wlan[0].mac.dcf packetReceivedFromPeerWithoutRetry:vector(packetBytes) ETV
attr interpolationmode none
attr source ieee80211NotRetry(packetReceivedFromPeer)
attr title "packets received: without retry, vector(packetBytes)"
vector 417 Scenario.node[36].wlan[0].mac packetSentToUpper:vector(packetBytes) ETV
attr interpolationmode none
attr title "packets sent to upper layer, vector(packetBytes)"
vector 418 Scenario.node[36].udp packetReceived:vector(packetBytes) ETV
attr interpolationmode none
attr source packetReceived
attr title "packets received, vector(packetBytes)"
vector 419 Scenario.node[36].udp passedUpPk:vector(count) ETV
attr interpolationmode none
attr source packetSentToUpper
attr title "packets passed up, vector(count)"
vector 420 Scenario.node[36].app[0] packetReceived:vector(packetBytes) ETV
attr interpolationmode none
attr source packetReceived
attr title "packets received, vector(packetBytes)"
[...]
103	306137 70 327 884 25.1 60.000152692438 3 1 3 5 11
104	306207 17 327 327 25.1 25.1 1 15 15 15 225
109	306224 48 353 353 27.1 27.1 3 0 2 2 4
110	306272 16 353 353 27.1 27.1 1 3 3 3 9
111	306288 70 353 872 27.1 60.000152604038 3 1 3 5 11
112	306358 17 353 353 27.1 27.1 1 15 15 15 225
117	306375 48 379 379 29.1 29.1 3 0 2 2 4
118	306423 16 379 379 29.1 29.1 1 3 3 3 9
119	306439 70 379 878 29.1 60.000152666528 3 1 3 5 11
120	306509 17 379 379 29.1 29.1 1 15 15 15 225
121	306526 48 392 392 30.1 30.1 3 0 2 2 4
122	306574 16 392 392 30.1 30.1 1 3 3 3 9
123	306590 70 392 902 30.1 60.000152727627 3 1 3 5 11
124	306660 17 392 392 30.1 30.1 1 15 15 15 225
125	306677 48 415 415 32.1 32.1 3 0 2 2 4
126	306725 16 415 415 32.1 32.1 1 3 3 3 9
127	306741 70 415 938 32.1 60.000152859981 3 1 3 5 11
128	306811 17 415 415 32.1 32.1 1 15 15 15 225
129	306828 48 428 428 33.1 33.1 3 0 2 2 4
130	306876 16 428 428 33.1 33.1 1 3 3 3 9
131	306892 70 428 956 33.1 60.000152979268 3 1 3 5 11
132	306962 17 428 428 33.1 33.1 1 15 15 15 225
141	306979 48 457 457 35.1 35.1 3 0 2 2 4
142	307027 16 457 457 35.1 35.1 1 3 3 3 9
143	307043 70 457 830 35.1 60.000152521561 3 1 3 5 11
144	307113 17 457 457 35.1 35.1 1 15 15 15 225
145	307130 48 470 470 36.1 36.1 3 0 2 2 4
146	307178 16 470 470 36.1 36.1 1 3 3 3 9
147	307194 70 470 908 36.1 60.000152743575 3 1 3 5 11
148	307264 17 470 470 36.1 36.1 1 15 15 15 225
150	307281 48 493 493 38.1 38.1 3 0 2 2 4
151	307329 16 493 493 38.1 38.1 1 3 3 3 9
152	307345 70 493 854 38.1 60.000152563871 3 1 3 5 11
153	307415 17 493 493 38.1 38.1 1 15 15 15 225
154	307432 48 506 506 39.1 39.1 3 0 2 2 4
155	307480 16 506 506 39.1 39.1 1 3 3 3 9
156	307496 70 506 896 39.1 60.000152709713 3 1 3 5 11
157	307566 17 506 506 39.1 39.1 1 15 15 15 225
162	307583 48 522 522 40.1 40.1 3 0 2 2 4
163	307631 16 522 522 40.1 40.1 1 3 3 3 9
164	307647 70 522 824 40.1 60.000152457433 3 1 3 5 11
165	307717 17 522 522 40.1 40.1 1 15 15 15 225
172	307734 48 548 548 42.1 42.1 3 0 2 2 4
173	307782 16 548 548 42.1 42.1 1 3 3 3 9
174	307798 16 548 548 42.1 42.1 1 1 1 1 1
175	307814 17 548 548 42.1 42.1 1 15 15 15 225
176	307831 48 561 561 43.1 43.1 3 0 2 2 4
177	307879 16 561 561 43.1 43.1 1 3 3 3 9
178	307895 70 561 944 43.1 60.000152872157 3 1 3 5 11
179	307965 17 561 561 43.1 43.1 1 15 15 15 225
181	307982 48 574 574 44.1 44.1 3 0 2 2 4
182	308030 16 574 574 44.1 44.1 1 3 3 3 9
183	308046 16 574 574 44.1 44.1 1 1 1 1 1
184	308062 17 574 574 44.1 44.1 1 15 15 15 225
186	308079 48 597 597 46.1 46.1 3 0 2 2 4
187	308127 16 597 597 46.1 46.1 1 3 3 3 9
188	308143 16 597 597 46.1 46.1 1 1 1 1 1
189	308159 17 597 597 46.1 46.1 1 15 15 15 225
195	308176 48 610 610 47.1 47.1 3 0 2 2 4
196	308224 16 610 610 47.1 47.1 1 3 3 3 9
197	308240 70 610 866 47.1 60.000152569145 3 1 3 5 11
198	308310 17 610 610 47.1 47.1 1 15 15 15 225
201	308327 48 636 636 49.1 49.1 3 0 2 2 4
202	308375 16 636 636 49.1 49.1 1 3 3 3 9
203	308391 16 636 636 49.1 49.1 1 1 1 1 1
204	308407 17 636 636 49.1 49.1 1 15 15 15 225
211	308424 48 672 672 52.1 52.1 3 0 2 2 4
212	308472 16 672 672 52.1 52.1 1 3 3 3 9
213	308488 16 672 672 52.1 52.1 1 1 1 1 1
214	308504 17 672 672 52.1 52.1 1 15 15 15 225
218	308521 16 754 754 60 60 1 100 100 100 10000
219	308537 16 756 756 60 60 1 108 108 108 11664
220	308553 16 758 758 60 60 1 128 128 128 16384
221	308569 16 758 758 60 60 1 128 128 128 16384
222	308585 16 761 761 60 60 1 130 130 130 16900
223	308601 16 761 761 60 60 1 158 158 158 24964
224	308617 28 761 765 60 60 2 0 1 1 1
225	308645 15 761 761 60 60 1 11 11 11 121
226	308660 28 761 764 60 60 2 0 1 1 1
227	308688 16 762 762 60 60 1 108 108 108 11664
228	308704 14 762 762 60 60 1 1 1 1 1
229	308718 16 763 763 60 60 1 100 100 100 10000
230	308734 12744 763 1173 0.1 80 800 0 8000 8000 64000000
231	321478 14 763 763 60 60 1 0 0 0 0
232	321492 16 765 765 60 60 1 158 158 158 24964
233	321508 14 765 765 60 60 1 0 0 0 0
234	321522 35 765 804 60 60.000152 2 0 1 1 1
235	321557 21 765 765 60 60 1 12000000 12000000 12000000 1.44e+014
236	321578 16 765 765 60 60 1 158 158 158 24964
237	321594 35 765 804 60 60.000152 2 0 1 1 1
238	321629 70 766 805 60 60.000152 4 0 2 4 6
239	321699 23 804 804 60.000152 60.000152 1 158 158 158 24964
240	321722 23 804 804 60.000152 60.000152 1 158 158 158 24964
241	321745 23 804 804 60.000152 60.000152 1 158 158 158 24964
242	321768 28 804 804 60.000152 60.000152 1 0.000152 0.000152 0.000152 2.3104e-008
263	321796 29 819 819 60.000152297435 60.000152297435 1 158 158 158 24964
264	321825 29 819 819 60.000152297435 60.000152297435 1 158 158 158 24964
265	321854 29 819 819 60.000152297435 60.000152297435 1 158 158 158 24964
266	321883 29 819 819 60.000152297435 60.000152297435 1 158 158 158 24964
267	321912 29 819 819 60.000152297435 60.000152297435 1 130 130 130 16900
268	321941 29 822 822 60.000152297435 60.000152297435 1 108 108 108 11664
269	321970 27 822 822 60.000152297435 60.000152297435 1 1 1 1 1
270	321997 29 823 823 60.000152297435 60.000152297435 1 100 100 100 10000
271	322026 12744 823 1173 0.1 80 800 0 8000 8000 64000000
272	334770 40 823 823 60.000152297435 60.000152297435 1 0.000152297435 0.000152297435 0.000152297435 2.3194508707579e-008
273	334810 29 825 825 60.000152457433 60.000152457433 1 158 158 158 24964
274	334839 29 825 825 60.000152457433 60.000152457433 1 158 158 158 24964
275	334868 29 825 825 60.000152457433 60.000152457433 1 158 158 158 24964
276	334897 29 825 825 60.000152457433 60.000152457433 1 158 158 158 24964
277	334926 29 825 825 60.000152457433 60.000152457433 1 130 130 130 16900
278	334955 29 828 828 60.000152457433 60.000152457433 1 108 108 108 11664
279	334984 27 828 828 60.000152457433 60.000152457433 1 1 1 1 1
280	335011 29 829 829 60.000152457433 60.000152457433 1 100 100 100 10000
281	335040 12744 829 1173 0.1 80 800 0 8000 8000 64000000
282	347784 40 829 829 60.000152457433 60.000152457433 1 0.000152457433 0.000152457433 0.000152457433 2.3243268876949e-008
283	347824 29 831 831 60.000152521561 60.000152521561 1 158 158 158 24964
284	347853 29 831 831 60.000152521561 60.000152521561 1 158 158 158 24964
285	347882 29 831 831 60.000152521561 60.000152521561 1 158 158 158 24964
286	347911 29 831 831 60.000152521561 60.000152521561 1 158 158 158 24964
287	347940 29 831 831 60.000152521561 60.000152521561 1 130 130 130 16900
288	347969 29 834 834 60.000152521561 60.000152521561 1 108 108 108 11664
289	347998 27 834 834 60.000152521561 60.000152521561 1 1 1 1 1
290	348025 29 835 835 60.000152521561 60.000152521561 1 100 100 100 10000
291	348054 12744 835 1173 0.1 80 800 0 8000 8000 64000000
292	360798 40 835 835 60.000152521561 60.000152521561 1 0.000152521561 0.000152521561 0.000152521561 2.3262826569877e-008
313	360838 29 849 849 60.000152560731 60.000152560731 1 158 158 158 24964
314	360867 29 849 849 60.000152560731 60.000152560731 1 158 158 158 24964
315	360896 29 849 849 60.000152560731 60.000152560731 1 158 158 158 24964
316	360925 29 849 849 60.000152560731 60.000152560731 1 158 158 158 24964
317	360954 29 849 849 60.000152560731 60.000152560731 1 130 130 130 16900
318	360983 29 852 852 60.000152560731 60.000152560731 1 108 108 108 11664
319	361012 27 852 852 60.000152560731 60.000152560731 1 1 1 1 1
320	361039 29 853 853 60.000152560731 60.000152560731 1 100 100 100 10000
321	361068 12744 853 1173 0.1 80 800 0 8000 8000 64000000
322	373812 40 853 853 60.000152560731 60.000152560731 1 0.000152560731 0.000152560731 0.000152560731 2.3274776643254e-008
323	373852 29 855 855 60.000152563871 60.000152563871 1 158 158 158 24964
324	373881 29 855 855 60.000152563871 60.000152563871 1 158 158 158 24964
325	373910 29 855 855 60.000152563871 60.000152563871 1 158 158 158 24964
326	373939 29 855 855 60.000152563871 60.000152563871 1 158 158 158 24964
327	373968 29 855 855 60.000152563871 60.000152563871 1 130 130 130 16900
328	373997 29 858 858 60.000152563871 60.000152563871 1 108 108 108 11664
329	374026 27 858 858 60.000152563871 60.000152563871 1 1 1 1 1
330	374053 29 859 859 60.000152563871 60.000152563871 1 100 100 100 10000
331	374082 12744 859 1173 0.1 80 800 0 8000 8000 64000000
332	386826 40 859 859 60.000152563871 60.000152563871 1 0.000152563871 0.000152563871 0.000152563871 2.3275734734505e-008
343	386866 29 867 867 60.000152569145 60.000152569145 1 158 158 158 24964
344	386895 29 867 867 60.000152569145 60.000152569145 1 158 158 158 24964
345	386924 29 867 867 60.000152569145 60.000152569145 1 158 158 158 24964
346	386953 29 867 867 60.000152569145 60.000152569145 1 158 158 158 24964
347	386982 29 867 867 60.000152569145 60.000152569145 1 130 130 130 16900
348	387011 29 870 870 60.000152569145 60.000152569145 1 108 108 108 11664
349	387040 27 870 870 60.000152569145 60.000152569145 1 1 1 1 1
350	387067 29 871 871 60.000152569145 60.000152569145 1 100 100 100 10000
351	387096 12744 871 1173 0.1 80 800 0 8000 8000 64000000
352	399840 40 871 871 60.000152569145 60.000152569145 1 0.000152569145 0.000152569145 0.000152569145 2.3277344006031e-008
353	399880 29 873 873 60.000152604038 60.000152604038 1 158 158 158 24964
354	399909 29 873 873 60.000152604038 60.000152604038 1 158 158 158 24964
355	399938 29 873 873 60.000152604038 60.000152604038 1 158 158 158 24964
356	399967 29 873 873 60.000152604038 60.000152604038 1 158 158 158 24964
357	399996 29 873 873 60.000152604038 60.000152604038 1 130 130 130 16900
358	400025 29 876 876 60.000152604038 60.000152604038 1 108 108 108 11664
359	400054 27 876 876 60.000152604038 60.000152604038 1 1 1 1 1
360	400081 29 877 877 60.000152604038 60.000152604038 1 100 100 100 10000
361	400110 12744 877 1173 0.1 80 800 0 8000 8000 64000000
362	412854 40 877 877 60.000152604038 60.000152604038 1 0.000152604038 0.000152604038 0.000152604038 2.3287992413905e-008
363	412894 29 879 879 60.000152666528 60.000152666528 1 158 158 158 24964
364	412923 29 879 879 60.000152666528 60.000152666528 1 158 158 158 24964
365	412952 29 879 879 60.000152666528 60.000152666528 1 158 158 158 24964
366	412981 29 879 879 60.000152666528 60.000152666528 1 158 158 158 24964
367	413010 29 879 879 60.000152666528 60.000152666528 1 130 130 130 16900
368	413039 29 882 882 60.000152666528 60.000152666528 1 108 108 108 11664
369	413068 27 882 882 60.000152666528 60.000152666528 1 1 1 1 1
370	413095 29 883 883 60.000152666528 60.000152666528 1 100 100 100 10000
371	413124 12744 883 1173 0.1 80 800 0 8000 8000 64000000
372	425868 40 883 883 60.000152666528 60.000152666528 1 0.000152666528 0.000152666528 0.000152666528 2.3307068771575e-008
373	425908 29 885 885 60.000152692438 60.000152692438 1 158 158 158 24964
374	425937 29 885 885 60.000152692438 60.000152692438 1 158 158 158 24964
375	425966 29 885 885 60.000152692438 60.000152692438 1 158 158 158 24964
376	425995 29 885 885 60.000152692438 60.000152692438 1 158 158 158 24964
377	426024 29 885 885 60.000152692438 60.000152692438 1 130 130 130 16900
378	426053 29 888 888 60.000152692438 60.000152692438 1 108 108 108 11664
379	426082 27 888 888 60.000152692438 60.000152692438 1 1 1 1 1
380	426109 29 889 889 60.000152692438 60.000152692438 1 100 100 100 10000
381	426138 12744 889 1173 0.1 80 800 0 8000 8000 64000000
382	438882 40 889 889 60.000152692438 60.000152692438 1 0.000152692438 0.000152692438 0.000152692438 2.3314980622384e-008
383	438922 29 891 891 60.000152696932 60.000152696932 1 158 158 158 24964
384	438951 29 891 891 60.000152696932 60.000152696932 1 158 158 158 24964
385	438980 29 891 891 60.000152696932 60.000152696932 1 158 158 158 24964
386	439009 29 891 891 60.000152696932 60.000152696932 1 158 158 158 24964
387	439038 29 891 891 60.000152696932 60.000152696932 1 130 130 130 16900
388	439067 29 894 894 60.000152696932 60.000152696932 1 108 108 108 11664
389	439096 27 894 894 60.000152696932 60.000152696932 1 1 1 1 1
390	439123 29 895 895 60.000152696932 60.000152696932 1 100 100 100 10000
391	439152 12744 895 1173 0.1 80 800 0 8000 8000 64000000
392	451896 40 895 895 60.000152696932 60.000152696932 1 0.000152696932 0.000152696932 0.000152696932 2.3316353042213e-008
393	451936 29 897 897 60.000152709713 60.000152709713 1 158 158 158 24964
394	451965 29 897 897 60.000152709713 60.000152709713 1 158 158 158 24964
395	451994 29 897 897 60.000152709713 60.000152709713 1 158 158 158 24964
396	452023 29 897 897 60.000152709713 60.000152709713 1 158 158 158 24964
397	452052 29 897 897 60.000152709713 60.000152709713 1 130 130 130 16900
398	452081 29 900 900 60.000152709713 60.000152709713 1 108 108 108 11664
399	452110 27 900 900 60.000152709713 60.000152709713 1 1 1 1 1
400	452137 29 901 901 60.000152709713 60.000152709713 1 100 100 100 10000
401	452166 12744 901 1173 0.1 80 800 0 8000 8000 64000000
402	464910 40 901 901 60.000152709713 60.000152709713 1 0.000152709713 0.000152709713 0.000152709713 2.3320256444542e-008
403	464950 29 903 903 60.000152727627 60.000152727627 1 158 158 158 24964
404	464979 29 903 903 60.000152727627 60.000152727627 1 158 158 158 24964
405	465008 29 903 903 60.000152727627 60.000152727627 1 158 158 158 24964
406	465037 29 903 903 60.000152727627 60.000152727627 1 158 158 158 24964
407	465066 29 903 903 60.000152727627 60.000152727627 1 130 130 130 16900
408	465095 29 906 906 60.000152727627 60.000152727627 1 108 108 108 11664
409	465124 27 906 906 60.000152727627 60.000152727627 1 1 1 1 1
410	465151 29 907 907 60.000152727627 60.000152727627 1 100 100 100 10000
411	465180 12744 907 1173 0.1 80 800 0 8000 8000 64000000
412	477924 40 907 907 60.000152727627 60.000152727627 1 0.000152727627 0.000152727627 0.000152727627 2.3325728049051e-008
413	477964 29 909 909 60.000152743575 60.000152743575 1 158 158 158 24964
414	477993 29 909 909 60.000152743575 60.000152743575 1 158 158 158 24964
415	478022 29 909 909 60.000152743575 60.000152743575 1 158 158 158 24964
416	478051 29 909 909 60.000152743575 60.000152743575 1 158 158 158 24964
417	478080 29 909 909 60.000152743575 60.000152743575 1 130 130 130 16900
418	478109 29 912 912 60.000152743575 60.000152743575 1 108 108 108 11664
419	478138 27 912 912 60.000152743575 60.000152743575 1 1 1 1 1
420	478165 29 913 913 60.000152743575 60.000152743575 1 100 100 100 10000
421	478194 12744 913 1173 0.1 80 800 0 8000 8000 64000000
422	490938 40 913 913 60.000152743575 60.000152743575 1 0.000152743575 0.000152743575 0.000152743575 2.3330599703781e-008
423	490978 29 915 915 60.000152747964 60.000152747964 1 158 158 158 24964
424	491007 29 915 915 60.000152747964 60.000152747964 1 158 158 158 24964
425	491036 29 915 915 60.000152747964 60.000152747964 1 158 158 158 24964
426	491065 29 915 915 60.000152747964 60.000152747964 1 158 158 158 24964
427	491094 29 915 915 60.000152747964 60.000152747964 1 130 130 130 16900
428	491123 29 918 918 60.000152747964 60.000152747964 1 108 108 108 11664
429	491152 27 918 918 60.000152747964 60.000152747964 1 1 1 1 1
430	491179 29 919 919 60.000152747964 60.000152747964 1 100 100 100 10000
431	491208 12744 919 1173 0.1 80 800 0 8000 8000 64000000
432	503952 40 919 919 60.000152747964 60.000152747964 1 0.000152747964 0.000152747964 0.000152747964 2.3331940506145e-008
433	503992 29 921 921 60.000152755493 60.000152755493 1 158 158 158 24964
434	504021 29 921 921 60.000152755493 60.000152755493 1 158 158 158 24964
435	504050 29 921 921 60.000152755493 60.000152755493 1 158 158 158 24964
436	504079 29 921 921 60.000152755493 60.000152755493 1 158 158 158 24964
437	504108 29 921 921 60.000152755493 60.000152755493 1 130 130 130 16900
438	504137 29 924 924 60.000152755493 60.000152755493 1 108 108 108 11664
439	504166 27 924 924 60.000152755493 60.000152755493 1 1 1 1 1
440	504193 29 925 925 60.000152755493 60.000152755493 1 100 100 100 10000
441	504222 12744 925 1173 0.1 80 800 0 8000 8000 64000000
442	516966 40 925 925 60.000152755493 60.000152755493 1 0.000152755493 0.000152755493 0.000152755493 2.3334240641673e-008
453	517006 29 933 933 60.000152846274 60.000152846274 1 158 158 158 24964
454	517035 29 933 933 60.000152846274 60.000152846274 1 158 158 158 24964
455	517064 29 933 933 60.000152846274 60.000152846274 1 158 158 158 24964
456	517093 29 933 933 60.000152846274 60.000152846274 1 158 158 158 24964
457	517122 29 933 933 60.000152846274 60.000152846274 1 130 130 130 16900
458	517151 29 936 936 60.000152846274 60.000152846274 1 108 108 108 11664
459	517180 27 936 936 60.000152846274 60.000152846274 1 1 1 1 1
460	517207 29 937 937 60.000152846274 60.000152846274 1 100 100 100 10000
461	517236 12744 937 1173 0.1 80 800 0 8000 8000 64000000
462	529980 40 937 937 60.000152846274 60.000152846274 1 0.000152846274 0.000152846274 0.000152846274 2.3361983475683e-008
463	530020 29 939 939 60.000152859981 60.000152859981 1 158 158 158 24964
464	530049 29 939 939 60.000152859981 60.000152859981 1 158 158 158 24964
465	530078 29 939 939 60.000152859981 60.000152859981 1 158 158 158 24964
466	530107 29 939 939 60.000152859981 60.000152859981 1 158 158 158 24964
467	530136 29 939 939 60.000152859981 60.000152859981 1 130 130 130 16900
468	530165 29 942 942 60.000152859981 60.000152859981 1 108 108 108 11664
469	530194 27 942 942 60.000152859981 60.000152859981 1 1 1 1 1
470	530221 29 943 943 60.000152859981 60.000152859981 1 100 100 100 10000
471	530250 12744 943 1173 0.1 80 800 0 8000 8000 64000000
472	542994 40 943 943 60.000152859981 60.000152859981 1 0.000152859981 0.000152859981 0.000152859981 2.336617379132e-008
473	543034 29 945 945 60.000152872157 60.000152872157 1 158 158 158 24964
474	543063 29 945 945 60.000152872157 60.000152872157 1 158 158 158 24964
475	543092 29 945 945 60.000152872157 60.000152872157 1 158 158 158 24964
476	543121 29 945 945 60.000152872157 60.000152872157 1 158 158 158 24964
477	543150 29 945 945 60.000152872157 60.000152872157 1 130 130 130 16900
478	543179 29 948 948 60.000152872157 60.000152872157 1 108 108 108 11664
479	543208 27 948 948 60.000152872157 60.000152872157 1 1 1 1 1
480	543235 29 949 949 60.000152872157 60.000152872157 1 100 100 100 10000
481	543264 12744 949 1173 0.1 80 800 0 8000 8000 64000000
482	556008 40 949 949 60.000152872157 60.000152872157 1 0.000152872157 0.000152872157 0.000152872157 2.3369896385833e-008
483	556048 29 951 951 60.000152965451 60.000152965451 1 158 158 158 24964
484	556077 29 951 951 60.000152965451 60.000152965451 1 158 158 158 24964
485	556106 29 951 951 60.000152965451 60.000152965451 1 158 158 158 24964
486	556135 29 951 951 60.000152965451 60.000152965451 1 158 158 158 24964
487	556164 29 951 951 60.000152965451 60.000152965451 1 130 130 130 16900
488	556193 29 954 954 60.000152965451 60.000152965451 1 108 108 108 11664
489	556222 27 954 954 60.000152965451 60.000152965451 1 1 1 1 1
490	556249 29 955 955 60.000152965451 60.000152965451 1 100 100 100 10000
491	556278 12744 955 1173 0.1 80 800 0 8000 8000 64000000
492	569022 40 955 955 60.000152965451 60.000152965451 1 0.000152965451 0.000152965451 0.000152965451 2.3398429199633e-008
493	569062 29 957 957 60.000152979268 60.000152979268 1 158 158 158 24964
494	569091 29 957 957 60.000152979268 60.000152979268 1 158 158 158 24964
495	569120 29 957 957 60.000152979268 60.000152979268 1 158 158 158 24964
496	569149 29 957 957 60.000152979268 60.000152979268 1 158 158 158 24964
497	569178 29 957 957 60.000152979268 60.000152979268 1 130 130 130 16900
498	569207 29 960 960 60.000152979268 60.000152979268 1 108 108 108 11664
499	569236 27 960 960 60.000152979268 60.000152979268 1 1 1 1 1
500	569263 29 961 961 60.000152979268 60.000152979268 1 100 100 100 10000
501	569292 12744 961 1173 0.1 80 800 0 8000 8000 64000000
502	582036 40 961 961 60.000152979268 60.000152979268 1 0.000152979268 0.000152979268 0.000152979268 2.3402656437816e-008
506	582076 13341 1173 1173 0.1 80 800 0 0 0 0
507	595417 13341 1173 1173 0.1 80 800 0 0 0 0
508	608758 13341 1173 1173 0.1 80 800 0 0 0 0
509	622099 13341 1173 1173 0.1 80 800 0 0 0 0
510	635440 13341 1173 1173 0.1 80 800 0 0 0 0
511	648781 13341 1173 1173 0.1 80 800 0 0 0 0
512	662122 13341 1173 1173 0.1 80 800 0 0 0 0

