version 2
run General-0-20240301-01:11:15-13816
attr configname General
attr datetime 20240301-01:11:15
attr experiment General
attr inifile omnetpp.ini
attr iterationvars ""
attr iterationvarsf ""
attr measurement ""
attr network Scenario
attr processid 13816
attr repetition 0
attr replication #0
attr resultdir results
attr runnumber 0
attr seedset 0
param *.node[*].numApps 1
param *.node[*].app[0].typename "\"vanetquevedo.veins_inet.VeinsInetSampleApplication\""
param *.node[*].app[0].interface "\"wlan0\""
param *.node[*].wlan[0].opMode "\"p\""
param *.node[*].wlan[0].radio.typename "\"Ieee80211DimensionalRadio\""
param *.node[*].wlan[0].radio.bandName "\"5.9 GHz\""
param *.node[*].wlan[0].radio.channelNumber 3
param *.node[*].wlan[0].radio.transmitter.power 20mW
param *.node[*].wlan[0].radio.bandwidth "10 MHz"
param *.node[*].wlan[*].radio.antenna.mobility.typename "\"AttachedMobility\""
param *.node[*].wlan[*].radio.antenna.mobility.mobilityModule "\"^.^.^.^.mobility\""
param *.node[*].wlan[*].radio.antenna.mobility.offsetX -2.5m
param *.node[*].wlan[*].radio.antenna.mobility.offsetZ 1.5m
param *.node[*].wlan[*].radio.antenna.mobility.constraintAreaMinX 0m
param *.node[*].wlan[*].radio.antenna.mobility.constraintAreaMaxX 0m
param *.node[*].wlan[*].radio.antenna.mobility.constraintAreaMinY 0m
param *.node[*].wlan[*].radio.antenna.mobility.constraintAreaMaxY 0m
param *.node[*].wlan[*].radio.antenna.mobility.constraintAreaMinZ 0m
param *.node[*].wlan[*].radio.antenna.mobility.constraintAreaMaxZ 0m
param *.node[*].ipv4.routingTableModule "\"inet.routing.dymo.DymoRouting\""
param *.node[*].ipv4.configurator.typename "\"HostAutoConfigurator\""
param *.node[*].ipv4.configurator.interfaces "\"wlan0\""
param *.node[*].ipv4.configurator.mcastGroups "\"224.0.0.1\""
param *.node[*].mobility.typename "\"VeinsInetMobility\""
param *.manager.updateInterval 0.1s
param *.manager.host "\"localhost\""
param *.manager.port 9999
param *.manager.autoShutdown true
param *.manager.launchConfig "xmldoc(\"centerquevedo.launchd.xml\")"
param *.manager.moduleType "\"vanetquevedo.veins_inet.VeinsInetCar\""

vector 0 Scenario.node[0].wlan[0].radio radioMode:vector ETV
attr interpolationmode sample-hold
attr source radioModeChanged
attr title "Radio mode, vector"
vector 1 Scenario.node[0].wlan[0].radio radioChannel:vector ETV
attr interpolationmode sample-hold
attr source radioChannelChanged
attr title "Radio channel, vector"
vector 2 Scenario.node[0].wlan[0].radio receptionState:vector ETV
attr interpolationmode sample-hold
attr source receptionStateChanged
attr title "Radio reception state, vector"
vector 3 Scenario.node[0].wlan[0].mac.dcf.recoveryProcedure contentionWindowChanged:vector ETV
attr interpolationmode sample-hold
attr title "contention window, vector"
vector 4 Scenario.node[1].wlan[0].radio radioMode:vector ETV
attr interpolationmode sample-hold
attr source radioModeChanged
attr title "Radio mode, vector"
vector 5 Scenario.node[1].wlan[0].radio radioChannel:vector ETV
attr interpolationmode sample-hold
attr source radioChannelChanged
attr title "Radio channel, vector"
vector 6 Scenario.node[1].wlan[0].radio receptionState:vector ETV
attr interpolationmode sample-hold
attr source receptionStateChanged
attr title "Radio reception state, vector"
vector 7 Scenario.node[1].wlan[0].mac.dcf.recoveryProcedure contentionWindowChanged:vector ETV
attr interpolationmode sample-hold
attr title "contention window, vector"
vector 8 Scenario.node[2].wlan[0].radio radioMode:vector ETV
attr interpolationmode sample-hold
attr source radioModeChanged
attr title "Radio mode, vector"
vector 9 Scenario.node[2].wlan[0].radio radioChannel:vector ETV
attr interpolationmode sample-hold
attr source radioChannelChanged
attr title "Radio channel, vector"
vector 10 Scenario.node[2].wlan[0].radio receptionState:vector ETV
attr interpolationmode sample-hold
attr source receptionStateChanged
attr title "Radio reception state, vector"
vector 11 Scenario.node[2].wlan[0].mac.dcf.recoveryProcedure contentionWindowChanged:vector ETV
attr interpolationmode sample-hold
attr title "contention window, vector"
vector 12 Scenario.node[3].wlan[0].radio radioMode:vector ETV
attr interpolationmode sample-hold
attr source radioModeChanged
attr title "Radio mode, vector"
vector 13 Scenario.node[3].wlan[0].radio radioChannel:vector ETV
attr interpolationmode sample-hold
attr source radioChannelChanged
attr title "Radio channel, vector"
vector 14 Scenario.node[3].wlan[0].radio receptionState:vector ETV
attr interpolationmode sample-hold
attr source receptionStateChanged
attr title "Radio reception state, vector"
vector 15 Scenario.node[3].wlan[0].mac.dcf.recoveryProcedure contentionWindowChanged:vector ETV
attr interpolationmode sample-hold
attr title "contention window, vector"
vector 16 Scenario.node[4].wlan[0].radio radioMode:vector ETV
attr interpolationmode sample-hold
attr source radioModeChanged
attr title "Radio mode, vector"
vector 17 Scenario.node[4].wlan[0].radio radioChannel:vector ETV
attr interpolationmode sample-hold
attr source radioChannelChanged
attr title "Radio channel, vector"
vector 18 Scenario.node[4].wlan[0].radio receptionState:vector ETV
attr interpolationmode sample-hold
attr source receptionStateChanged
attr title "Radio reception state, vector"
vector 19 Scenario.node[4].wlan[0].mac.dcf.recoveryProcedure contentionWindowChanged:vector ETV
attr interpolationmode sample-hold
attr title "contention window, vector"
vector 20 Scenario.node[0].app[0] packetSent:vector(packetBytes) ETV
attr interpolationmode none
attr source packetSent
attr title "packets sent, vector(packetBytes)"
vector 21 Scenario.node[0].udp packetSent:vector(packetBytes) ETV
attr interpolationmode none
attr source packetSent
attr title "packets sent, vector(packetBytes)"
vector 22 Scenario.node[0].lo[0].lo rcvdPkFromHl:vector(packetBytes) ETV
attr interpolationmode none
attr source packetReceivedFromUpper
attr title "packets received from higher layer, vector(packetBytes)"
vector 23 Scenario.node[0].lo[0].lo passedUpPk:vector(packetBytes) ETV
attr interpolationmode none
attr source packetSentToUpper
attr title "packets passed to higher layer, vector(packetBytes)"
vector 24 Scenario.node[0].wlan[0].mac packetReceivedFromUpper:vector(packetBytes) ETV
attr interpolationmode none
attr title "packets received from upper layer, vector(packetBytes)"
vector 25 Scenario.node[0].wlan[0].mac.dcf.channelAccess.pendingQueue packetPushed:vector(packetBytes) ETV
attr interpolationmode none
attr title "packet pushed, vector(packetBytes)"
vector 26 Scenario.node[0].wlan[0].mac.dcf.channelAccess.pendingQueue queueLength:vector ETV
attr interpolationmode sample-hold
attr source "count(packetPushed) - count(packetPopped) - count(packetRemoved) - count(packetDropped)"
attr title "queue length, vector"
vector 27 Scenario.node[0].wlan[0].mac.dcf.channelAccess.contention backoffPeriodGenerated:vector ETV
attr interpolationmode none
attr title "backoff periods, vector"
vector 28 Scenario.node[0].wlan[0].mac.dcf.channelAccess.contention backoffActive:vector ETV
attr interpolationmode sample-hold
attr source count(backoffStarted)-count(backoffStopped)
attr title "backoff active, vector"
vector 29 Scenario.node[0].udp packetReceived:vector(packetBytes) ETV
attr interpolationmode none
attr source packetReceived
attr title "packets received, vector(packetBytes)"
vector 30 Scenario.node[0].udp passedUpPk:vector(count) ETV
attr interpolationmode none
attr source packetSentToUpper
attr title "packets passed up, vector(count)"
vector 31 Scenario.node[0].app[0] packetReceived:vector(packetBytes) ETV
attr interpolationmode none
attr source packetReceived
attr title "packets received, vector(packetBytes)"
vector 32 Scenario.node[0].app[0] throughput:vector ETV
attr source throughput(packetReceived)
attr title "throughput, vector"
attr unit bps
vector 33 Scenario.node[0].app[0] rcvdPkLifetime:vector ETV
attr interpolationmode none
attr source dataAge(packetReceived)
attr title "received packet lifetime, vector"
attr unit s
vector 34 Scenario.node[0].wlan[0].mac.dcf.channelAccess.pendingQueue packetPopped:vector(packetBytes) ETV
attr interpolationmode none
attr title "packet popped, vector(packetBytes)"
vector 35 Scenario.node[0].wlan[0].mac.dcf.channelAccess.pendingQueue queueingTime:vector ETV
attr interpolationmode none
attr source queueingTime(packetPopped)
attr title "queueing times, vector"
attr unit s
vector 36 Scenario.node[0].wlan[0].mac.dcf.channelAccess.inProgressFrames queueLength:vector ETV
attr interpolationmode sample-hold
attr source "count(packetEnqueued) - count(packetDequeued)"
attr title "queue length, vector"
vector 37 Scenario.node[0].wlan[0].mac.dcf datarateSelected:vector ETV
attr interpolationmode none
attr title "datarates selected, vector"
vector 38 Scenario.node[0].wlan[0].mac packetSentToLower:vector(packetBytes) ETV
attr interpolationmode none
attr title "packets sent to lower layer, vector(packetBytes)"
vector 39 Scenario.node[0].wlan[0].mac.dcf frameSequenceActive:vector ETV
attr interpolationmode sample-hold
attr source count(frameSequenceStarted)-count(frameSequenceFinished)
attr title "frame sequence active, vector"
vector 40 Scenario.node[0].wlan[0].radio transmissionState:vector ETV
attr interpolationmode sample-hold
attr source transmissionStateChanged
attr title "Radio transmission state, vector"
vector 41 Scenario.node[0].wlan[0].mac.dcf packetSentToPeer:vector(packetBytes) ETV
attr interpolationmode none
attr title "packets sent, vector(packetBytes)"
vector 42 Scenario.node[0].wlan[0].mac.dcf packetSentToPeerMulticast:vector(packetBytes) ETV
attr interpolationmode none
attr source ieee80211Multicast(packetSentToPeer)
attr title "packets sent: multicast, vector(packetBytes)"
vector 43 Scenario.node[0].wlan[0].mac.dcf packetSentToPeerWithoutRetry:vector(packetBytes) ETV
attr interpolationmode none
attr source ieee80211NotRetry(packetSentToPeer)
attr title "packets sent: without retry, vector(packetBytes)"
vector 44 Scenario.node[0].wlan[0].mac.dcf.channelAccess.inProgressFrames queueingTime:vector ETV
attr interpolationmode none
attr source queueingTime(packetDequeued)
attr title "queueing times, vector"
vector 45 Scenario.node[1].wlan[0].mac packetReceivedFromLower:vector(packetBytes) ETV
attr interpolationmode none
attr title "packets received from lower layer, vector(packetBytes)"
vector 46 Scenario.node[1].wlan[0].mac.dcf packetReceivedFromPeer:vector(packetBytes) ETV
attr interpolationmode none
attr title "packets received, vector(packetBytes)"
vector 47 Scenario.node[1].wlan[0].mac.dcf packetReceivedFromPeerMulticast:vector(packetBytes) ETV
attr interpolationmode none
attr source ieee80211Multicast(packetReceivedFromPeer)
attr title "packets received: multicast, vector(packetBytes)"
vector 48 Scenario.node[1].wlan[0].mac.dcf packetReceivedFromPeerWithoutRetry:vector(packetBytes) ETV
attr interpolationmode none
attr source ieee80211NotRetry(packetReceivedFromPeer)
attr title "packets received: without retry, vector(packetBytes)"
vector 49 Scenario.node[1].wlan[0].mac packetSentToUpper:vector(packetBytes) ETV
attr interpolationmode none
attr title "packets sent to upper layer, vector(packetBytes)"
vector 50 Scenario.node[1].udp packetReceived:vector(packetBytes) ETV
attr interpolationmode none
attr source packetReceived
attr title "packets received, vector(packetBytes)"
vector 51 Scenario.node[1].udp passedUpPk:vector(count) ETV
attr interpolationmode none
attr source packetSentToUpper
attr title "packets passed up, vector(count)"
vector 52 Scenario.node[1].app[0] packetReceived:vector(packetBytes) ETV
attr interpolationmode none
attr source packetReceived
attr title "packets received, vector(packetBytes)"
vector 53 Scenario.node[1].app[0] throughput:vector ETV
attr source throughput(packetReceived)
attr title "throughput, vector"
attr unit bps
vector 54 Scenario.node[1].app[0] rcvdPkLifetime:vector ETV
attr interpolationmode none
attr source dataAge(packetReceived)
attr title "received packet lifetime, vector"
attr unit s
vector 55 Scenario.node[4].wlan[0].mac packetReceivedFromLower:vector(packetBytes) ETV
attr interpolationmode none
attr title "packets received from lower layer, vector(packetBytes)"
vector 56 Scenario.node[4].wlan[0].mac.dcf packetReceivedFromPeer:vector(packetBytes) ETV
attr interpolationmode none
attr title "packets received, vector(packetBytes)"
vector 57 Scenario.node[4].wlan[0].mac.dcf packetReceivedFromPeerMulticast:vector(packetBytes) ETV
attr interpolationmode none
attr source ieee80211Multicast(packetReceivedFromPeer)
attr title "packets received: multicast, vector(packetBytes)"
vector 58 Scenario.node[4].wlan[0].mac.dcf packetReceivedFromPeerWithoutRetry:vector(packetBytes) ETV
attr interpolationmode none
attr source ieee80211NotRetry(packetReceivedFromPeer)
attr title "packets received: without retry, vector(packetBytes)"
vector 59 Scenario.node[4].wlan[0].mac packetSentToUpper:vector(packetBytes) ETV
attr interpolationmode none
attr title "packets sent to upper layer, vector(packetBytes)"
vector 60 Scenario.node[4].udp packetReceived:vector(packetBytes) ETV
attr interpolationmode none
attr source packetReceived
attr title "packets received, vector(packetBytes)"
vector 61 Scenario.node[4].udp passedUpPk:vector(count) ETV
attr interpolationmode none
attr source packetSentToUpper
attr title "packets passed up, vector(count)"
vector 62 Scenario.node[4].app[0] packetReceived:vector(packetBytes) ETV
attr interpolationmode none
attr source packetReceived
attr title "packets received, vector(packetBytes)"
vector 63 Scenario.node[4].app[0] throughput:vector ETV
attr source throughput(packetReceived)
attr title "throughput, vector"
attr unit bps
vector 64 Scenario.node[4].app[0] rcvdPkLifetime:vector ETV
attr interpolationmode none
attr source dataAge(packetReceived)
attr title "received packet lifetime, vector"
attr unit s
vector 65 Scenario.node[2].wlan[0].mac packetReceivedFromLower:vector(packetBytes) ETV
attr interpolationmode none
attr title "packets received from lower layer, vector(packetBytes)"
vector 66 Scenario.node[2].wlan[0].mac.dcf packetReceivedFromPeer:vector(packetBytes) ETV
attr interpolationmode none
attr title "packets received, vector(packetBytes)"
vector 67 Scenario.node[2].wlan[0].mac.dcf packetReceivedFromPeerMulticast:vector(packetBytes) ETV
attr interpolationmode none
attr source ieee80211Multicast(packetReceivedFromPeer)
attr title "packets received: multicast, vector(packetBytes)"
vector 68 Scenario.node[2].wlan[0].mac.dcf packetReceivedFromPeerWithoutRetry:vector(packetBytes) ETV
attr interpolationmode none
attr source ieee80211NotRetry(packetReceivedFromPeer)
attr title "packets received: without retry, vector(packetBytes)"
vector 69 Scenario.node[2].wlan[0].mac packetSentToUpper:vector(packetBytes) ETV
attr interpolationmode none
attr title "packets sent to upper layer, vector(packetBytes)"
vector 70 Scenario.node[2].udp packetReceived:vector(packetBytes) ETV
attr interpolationmode none
attr source packetReceived
attr title "packets received, vector(packetBytes)"
vector 71 Scenario.node[2].udp passedUpPk:vector(count) ETV
attr interpolationmode none
attr source packetSentToUpper
attr title "packets passed up, vector(count)"
vector 72 Scenario.node[2].app[0] packetReceived:vector(packetBytes) ETV
attr interpolationmode none
attr source packetReceived
attr title "packets received, vector(packetBytes)"
vector 73 Scenario.node[2].app[0] throughput:vector ETV
attr source throughput(packetReceived)
attr title "throughput, vector"
attr unit bps
vector 74 Scenario.node[2].app[0] rcvdPkLifetime:vector ETV
attr interpolationmode none
attr source dataAge(packetReceived)
attr title "received packet lifetime, vector"
attr unit s
vector 75 Scenario.node[5].wlan[0].radio radioMode:vector ETV
attr interpolationmode sample-hold
attr source radioModeChanged
attr title "Radio mode, vector"
vector 76 Scenario.node[5].wlan[0].radio radioChannel:vector ETV
attr interpolationmode sample-hold
attr source radioChannelChanged
attr title "Radio channel, vector"
vector 77 Scenario.node[5].wlan[0].radio receptionState:vector ETV
attr interpolationmode sample-hold
attr source receptionStateChanged
attr title "Radio reception state, vector"
vector 78 Scenario.node[5].wlan[0].mac.dcf.recoveryProcedure contentionWindowChanged:vector ETV
attr interpolationmode sample-hold
attr title "contention window, vector"
vector 79 Scenario.node[6].wlan[0].radio radioMode:vector ETV
attr interpolationmode sample-hold
attr source radioModeChanged
attr title "Radio mode, vector"
vector 80 Scenario.node[6].wlan[0].radio radioChannel:vector ETV
attr interpolationmode sample-hold
attr source radioChannelChanged
attr title "Radio channel, vector"
vector 81 Scenario.node[6].wlan[0].radio receptionState:vector ETV
attr interpolationmode sample-hold
attr source receptionStateChanged
attr title "Radio reception state, vector"
vector 82 Scenario.node[6].wlan[0].mac.dcf.recoveryProcedure contentionWindowChanged:vector ETV
attr interpolationmode sample-hold
attr title "contention window, vector"
vector 83 Scenario.node[7].wlan[0].radio radioMode:vector ETV
attr interpolationmode sample-hold
attr source radioModeChanged
attr title "Radio mode, vector"
vector 84 Scenario.node[7].wlan[0].radio radioChannel:vector ETV
attr interpolationmode sample-hold
attr source radioChannelChanged
attr title "Radio channel, vector"
vector 85 Scenario.node[7].wlan[0].radio receptionState:vector ETV
attr interpolationmode sample-hold
attr source receptionStateChanged
attr title "Radio reception state, vector"
vector 86 Scenario.node[7].wlan[0].mac.dcf.recoveryProcedure contentionWindowChanged:vector ETV
attr interpolationmode sample-hold
attr title "contention window, vector"
vector 87 Scenario.node[8].wlan[0].radio radioMode:vector ETV
attr interpolationmode sample-hold
attr source radioModeChanged
attr title "Radio mode, vector"
vector 88 Scenario.node[8].wlan[0].radio radioChannel:vector ETV
attr interpolationmode sample-hold
attr source radioChannelChanged
attr title "Radio channel, vector"
vector 89 Scenario.node[8].wlan[0].radio receptionState:vector ETV
attr interpolationmode sample-hold
attr source receptionStateChanged
attr title "Radio reception state, vector"
vector 90 Scenario.node[8].wlan[0].mac.dcf.recoveryProcedure contentionWindowChanged:vector ETV
attr interpolationmode sample-hold
attr title "contention window, vector"
vector 91 Scenario.node[9].wlan[0].radio radioMode:vector ETV
attr interpolationmode sample-hold
attr source radioModeChanged
attr title "Radio mode, vector"
vector 92 Scenario.node[9].wlan[0].radio radioChannel:vector ETV
attr interpolationmode sample-hold
attr source radioChannelChanged
attr title "Radio channel, vector"
vector 93 Scenario.node[9].wlan[0].radio receptionState:vector ETV
attr interpolationmode sample-hold
attr source receptionStateChanged
attr title "Radio reception state, vector"
vector 94 Scenario.node[9].wlan[0].mac.dcf.recoveryProcedure contentionWindowChanged:vector ETV
attr interpolationmode sample-hold
attr title "contention window, vector"
vector 95 Scenario.node[10].wlan[0].radio radioMode:vector ETV
attr interpolationmode sample-hold
attr source radioModeChanged
attr title "Radio mode, vector"
vector 96 Scenario.node[10].wlan[0].radio radioChannel:vector ETV
attr interpolationmode sample-hold
attr source radioChannelChanged
attr title "Radio channel, vector"
vector 97 Scenario.node[10].wlan[0].radio receptionState:vector ETV
attr interpolationmode sample-hold
attr source receptionStateChanged
attr title "Radio reception state, vector"
vector 98 Scenario.node[10].wlan[0].mac.dcf.recoveryProcedure contentionWindowChanged:vector ETV
attr interpolationmode sample-hold
attr title "contention window, vector"
vector 99 Scenario.node[11].wlan[0].radio radioMode:vector ETV
attr interpolationmode sample-hold
attr source radioModeChanged
attr title "Radio mode, vector"
vector 100 Scenario.node[11].wlan[0].radio radioChannel:vector ETV
attr interpolationmode sample-hold
attr source radioChannelChanged
attr title "Radio channel, vector"
vector 101 Scenario.node[11].wlan[0].radio receptionState:vector ETV
attr interpolationmode sample-hold
attr source receptionStateChanged
attr title "Radio reception state, vector"
vector 102 Scenario.node[11].wlan[0].mac.dcf.recoveryProcedure contentionWindowChanged:vector ETV
attr interpolationmode sample-hold
attr title "contention window, vector"
vector 103 Scenario.node[12].wlan[0].radio radioMode:vector ETV
attr interpolationmode sample-hold
attr source radioModeChanged
attr title "Radio mode, vector"
vector 104 Scenario.node[12].wlan[0].radio radioChannel:vector ETV
attr interpolationmode sample-hold
attr source radioChannelChanged
attr title "Radio channel, vector"
vector 105 Scenario.node[12].wlan[0].radio receptionState:vector ETV
attr interpolationmode sample-hold
attr source receptionStateChanged
attr title "Radio reception state, vector"
vector 106 Scenario.node[12].wlan[0].mac.dcf.recoveryProcedure contentionWindowChanged:vector ETV
attr interpolationmode sample-hold
attr title "contention window, vector"
vector 107 Scenario.node[13].wlan[0].radio radioMode:vector ETV
attr interpolationmode sample-hold
attr source radioModeChanged
attr title "Radio mode, vector"
vector 108 Scenario.node[13].wlan[0].radio radioChannel:vector ETV
attr interpolationmode sample-hold
attr source radioChannelChanged
attr title "Radio channel, vector"
vector 109 Scenario.node[13].wlan[0].radio receptionState:vector ETV
attr interpolationmode sample-hold
attr source receptionStateChanged
attr title "Radio reception state, vector"
vector 110 Scenario.node[13].wlan[0].mac.dcf.recoveryProcedure contentionWindowChanged:vector ETV
attr interpolationmode sample-hold
attr title "contention window, vector"
vector 111 Scenario.node[7].wlan[0].mac packetReceivedFromLower:vector(packetBytes) ETV
attr interpolationmode none
attr title "packets received from lower layer, vector(packetBytes)"
vector 112 Scenario.node[7].wlan[0].mac.dcf packetReceivedFromPeer:vector(packetBytes) ETV
attr interpolationmode none
attr title "packets received, vector(packetBytes)"
vector 113 Scenario.node[7].wlan[0].mac.dcf packetReceivedFromPeerMulticast:vector(packetBytes) ETV
attr interpolationmode none
attr source ieee80211Multicast(packetReceivedFromPeer)
attr title "packets received: multicast, vector(packetBytes)"
vector 114 Scenario.node[7].wlan[0].mac.dcf packetReceivedFromPeerWithoutRetry:vector(packetBytes) ETV
attr interpolationmode none
attr source ieee80211NotRetry(packetReceivedFromPeer)
attr title "packets received: without retry, vector(packetBytes)"
vector 115 Scenario.node[7].wlan[0].mac packetSentToUpper:vector(packetBytes) ETV
attr interpolationmode none
attr title "packets sent to upper layer, vector(packetBytes)"
vector 116 Scenario.node[7].udp packetReceived:vector(packetBytes) ETV
attr interpolationmode none
attr source packetReceived
attr title "packets received, vector(packetBytes)"
vector 117 Scenario.node[7].udp passedUpPk:vector(count) ETV
attr interpolationmode none
attr source packetSentToUpper
attr title "packets passed up, vector(count)"
vector 118 Scenario.node[7].app[0] packetReceived:vector(packetBytes) ETV
attr interpolationmode none
attr source packetReceived
attr title "packets received, vector(packetBytes)"
vector 119 Scenario.node[7].app[0] throughput:vector ETV
attr source throughput(packetReceived)
attr title "throughput, vector"
attr unit bps
vector 120 Scenario.node[7].app[0] rcvdPkLifetime:vector ETV
attr interpolationmode none
attr source dataAge(packetReceived)
attr title "received packet lifetime, vector"
attr unit s
vector 121 Scenario.node[12].wlan[0].mac packetReceivedFromLower:vector(packetBytes) ETV
attr interpolationmode none
attr title "packets received from lower layer, vector(packetBytes)"
vector 122 Scenario.node[12].wlan[0].mac.dcf packetReceivedFromPeer:vector(packetBytes) ETV
attr interpolationmode none
attr title "packets received, vector(packetBytes)"
vector 123 Scenario.node[12].wlan[0].mac.dcf packetReceivedFromPeerMulticast:vector(packetBytes) ETV
attr interpolationmode none
attr source ieee80211Multicast(packetReceivedFromPeer)
attr title "packets received: multicast, vector(packetBytes)"
vector 124 Scenario.node[12].wlan[0].mac.dcf packetReceivedFromPeerWithoutRetry:vector(packetBytes) ETV
attr interpolationmode none
attr source ieee80211NotRetry(packetReceivedFromPeer)
attr title "packets received: without retry, vector(packetBytes)"
vector 125 Scenario.node[12].wlan[0].mac packetSentToUpper:vector(packetBytes) ETV
attr interpolationmode none
attr title "packets sent to upper layer, vector(packetBytes)"
vector 126 Scenario.node[12].udp packetReceived:vector(packetBytes) ETV
attr interpolationmode none
attr source packetReceived
attr title "packets received, vector(packetBytes)"
vector 127 Scenario.node[12].udp passedUpPk:vector(count) ETV
attr interpolationmode none
attr source packetSentToUpper
attr title "packets passed up, vector(count)"
vector 128 Scenario.node[12].app[0] packetReceived:vector(packetBytes) ETV
attr interpolationmode none
attr source packetReceived
attr title "packets received, vector(packetBytes)"
vector 129 Scenario.node[12].app[0] throughput:vector ETV
attr source throughput(packetReceived)
attr title "throughput, vector"
attr unit bps
vector 130 Scenario.node[12].app[0] rcvdPkLifetime:vector ETV
attr interpolationmode none
attr source dataAge(packetReceived)
attr title "received packet lifetime, vector"
attr unit s
vector 131 Scenario.node[5].wlan[0].mac packetReceivedFromLower:vector(packetBytes) ETV
attr interpolationmode none
attr title "packets received from lower layer, vector(packetBytes)"
vector 132 Scenario.node[5].wlan[0].mac.dcf packetReceivedFromPeer:vector(packetBytes) ETV
attr interpolationmode none
attr title "packets received, vector(packetBytes)"
vector 133 Scenario.node[5].wlan[0].mac.dcf packetReceivedFromPeerMulticast:vector(packetBytes) ETV
attr interpolationmode none
attr source ieee80211Multicast(packetReceivedFromPeer)
attr title "packets received: multicast, vector(packetBytes)"
vector 134 Scenario.node[5].wlan[0].mac.dcf packetReceivedFromPeerWithoutRetry:vector(packetBytes) ETV
attr interpolationmode none
attr source ieee80211NotRetry(packetReceivedFromPeer)
attr title "packets received: without retry, vector(packetBytes)"
vector 135 Scenario.node[5].wlan[0].mac packetSentToUpper:vector(packetBytes) ETV
attr interpolationmode none
attr title "packets sent to upper layer, vector(packetBytes)"
vector 136 Scenario.node[5].udp packetReceived:vector(packetBytes) ETV
attr interpolationmode none
attr source packetReceived
attr title "packets received, vector(packetBytes)"
vector 137 Scenario.node[5].udp passedUpPk:vector(count) ETV
attr interpolationmode none
attr source packetSentToUpper
attr title "packets passed up, vector(count)"
vector 138 Scenario.node[5].app[0] packetReceived:vector(packetBytes) ETV
attr interpolationmode none
attr source packetReceived
attr title "packets received, vector(packetBytes)"
vector 139 Scenario.node[5].app[0] throughput:vector ETV
attr source throughput(packetReceived)
attr title "throughput, vector"
attr unit bps
vector 140 Scenario.node[5].app[0] rcvdPkLifetime:vector ETV
attr interpolationmode none
attr source dataAge(packetReceived)
attr title "received packet lifetime, vector"
attr unit s
vector 141 Scenario.node[8].wlan[0].mac packetReceivedFromLower:vector(packetBytes) ETV
attr interpolationmode none
attr title "packets received from lower layer, vector(packetBytes)"
vector 142 Scenario.node[8].wlan[0].mac.dcf packetReceivedFromPeer:vector(packetBytes) ETV
attr interpolationmode none
attr title "packets received, vector(packetBytes)"
vector 143 Scenario.node[8].wlan[0].mac.dcf packetReceivedFromPeerMulticast:vector(packetBytes) ETV
attr interpolationmode none
attr source ieee80211Multicast(packetReceivedFromPeer)
attr title "packets received: multicast, vector(packetBytes)"
vector 144 Scenario.node[8].wlan[0].mac.dcf packetReceivedFromPeerWithoutRetry:vector(packetBytes) ETV
attr interpolationmode none
attr source ieee80211NotRetry(packetReceivedFromPeer)
attr title "packets received: without retry, vector(packetBytes)"
vector 145 Scenario.node[8].wlan[0].mac packetSentToUpper:vector(packetBytes) ETV
attr interpolationmode none
attr title "packets sent to upper layer, vector(packetBytes)"
vector 146 Scenario.node[8].udp packetReceived:vector(packetBytes) ETV
attr interpolationmode none
attr source packetReceived
attr title "packets received, vector(packetBytes)"
vector 147 Scenario.node[8].udp passedUpPk:vector(count) ETV
attr interpolationmode none
attr source packetSentToUpper
attr title "packets passed up, vector(count)"
vector 148 Scenario.node[8].app[0] packetReceived:vector(packetBytes) ETV
attr interpolationmode none
attr source packetReceived
attr title "packets received, vector(packetBytes)"
vector 149 Scenario.node[8].app[0] throughput:vector ETV
attr source throughput(packetReceived)
attr title "throughput, vector"
attr unit bps
vector 150 Scenario.node[8].app[0] rcvdPkLifetime:vector ETV
attr interpolationmode none
attr source dataAge(packetReceived)
attr title "received packet lifetime, vector"
attr unit s
vector 151 Scenario.node[6].wlan[0].mac packetReceivedFromLower:vector(packetBytes) ETV
attr interpolationmode none
attr title "packets received from lower layer, vector(packetBytes)"
vector 152 Scenario.node[6].wlan[0].mac.dcf packetReceivedFromPeer:vector(packetBytes) ETV
attr interpolationmode none
attr title "packets received, vector(packetBytes)"
vector 153 Scenario.node[6].wlan[0].mac.dcf packetReceivedFromPeerMulticast:vector(packetBytes) ETV
attr interpolationmode none
attr source ieee80211Multicast(packetReceivedFromPeer)
attr title "packets received: multicast, vector(packetBytes)"
vector 154 Scenario.node[6].wlan[0].mac.dcf packetReceivedFromPeerWithoutRetry:vector(packetBytes) ETV
attr interpolationmode none
attr source ieee80211NotRetry(packetReceivedFromPeer)
attr title "packets received: without retry, vector(packetBytes)"
vector 155 Scenario.node[6].wlan[0].mac packetSentToUpper:vector(packetBytes) ETV
attr interpolationmode none
attr title "packets sent to upper layer, vector(packetBytes)"
vector 156 Scenario.node[6].udp packetReceived:vector(packetBytes) ETV
attr interpolationmode none
attr source packetReceived
attr title "packets received, vector(packetBytes)"
vector 157 Scenario.node[6].udp passedUpPk:vector(count) ETV
attr interpolationmode none
attr source packetSentToUpper
attr title "packets passed up, vector(count)"
vector 158 Scenario.node[6].app[0] packetReceived:vector(packetBytes) ETV
attr interpolationmode none
attr source packetReceived
attr title "packets received, vector(packetBytes)"
vector 159 Scenario.node[6].app[0] throughput:vector ETV
attr source throughput(packetReceived)
attr title "throughput, vector"
attr unit bps
vector 160 Scenario.node[6].app[0] rcvdPkLifetime:vector ETV
attr interpolationmode none
attr source dataAge(packetReceived)
attr title "received packet lifetime, vector"
attr unit s
vector 161 Scenario.node[9].wlan[0].mac packetReceivedFromLower:vector(packetBytes) ETV
attr interpolationmode none
attr title "packets received from lower layer, vector(packetBytes)"
vector 162 Scenario.node[9].wlan[0].mac.dcf packetReceivedFromPeer:vector(packetBytes) ETV
attr interpolationmode none
attr title "packets received, vector(packetBytes)"
vector 163 Scenario.node[9].wlan[0].mac.dcf packetReceivedFromPeerMulticast:vector(packetBytes) ETV
attr interpolationmode none
attr source ieee80211Multicast(packetReceivedFromPeer)
attr title "packets received: multicast, vector(packetBytes)"
vector 164 Scenario.node[9].wlan[0].mac.dcf packetReceivedFromPeerWithoutRetry:vector(packetBytes) ETV
attr interpolationmode none
attr source ieee80211NotRetry(packetReceivedFromPeer)
attr title "packets received: without retry, vector(packetBytes)"
vector 165 Scenario.node[9].wlan[0].mac packetSentToUpper:vector(packetBytes) ETV
attr interpolationmode none
attr title "packets sent to upper layer, vector(packetBytes)"
vector 166 Scenario.node[9].udp packetReceived:vector(packetBytes) ETV
attr interpolationmode none
attr source packetReceived
attr title "packets received, vector(packetBytes)"
vector 167 Scenario.node[9].udp passedUpPk:vector(count) ETV
attr interpolationmode none
attr source packetSentToUpper
attr title "packets passed up, vector(count)"
vector 168 Scenario.node[9].app[0] packetReceived:vector(packetBytes) ETV
attr interpolationmode none
attr source packetReceived
attr title "packets received, vector(packetBytes)"
vector 169 Scenario.node[9].app[0] throughput:vector ETV
attr source throughput(packetReceived)
attr title "throughput, vector"
attr unit bps
vector 170 Scenario.node[9].app[0] rcvdPkLifetime:vector ETV
attr interpolationmode none
attr source dataAge(packetReceived)
attr title "received packet lifetime, vector"
attr unit s
vector 171 Scenario.node[10].wlan[0].mac packetReceivedFromLower:vector(packetBytes) ETV
attr interpolationmode none
attr title "packets received from lower layer, vector(packetBytes)"
vector 172 Scenario.node[10].wlan[0].mac.dcf packetReceivedFromPeer:vector(packetBytes) ETV
attr interpolationmode none
attr title "packets received, vector(packetBytes)"
vector 173 Scenario.node[10].wlan[0].mac.dcf packetReceivedFromPeerMulticast:vector(packetBytes) ETV
attr interpolationmode none
attr source ieee80211Multicast(packetReceivedFromPeer)
attr title "packets received: multicast, vector(packetBytes)"
vector 174 Scenario.node[10].wlan[0].mac.dcf packetReceivedFromPeerWithoutRetry:vector(packetBytes) ETV
attr interpolationmode none
attr source ieee80211NotRetry(packetReceivedFromPeer)
attr title "packets received: without retry, vector(packetBytes)"
vector 175 Scenario.node[10].wlan[0].mac packetSentToUpper:vector(packetBytes) ETV
attr interpolationmode none
attr title "packets sent to upper layer, vector(packetBytes)"
vector 176 Scenario.node[10].udp packetReceived:vector(packetBytes) ETV
attr interpolationmode none
attr source packetReceived
attr title "packets received, vector(packetBytes)"
vector 177 Scenario.node[10].udp passedUpPk:vector(count) ETV
attr interpolationmode none
attr source packetSentToUpper
attr title "packets passed up, vector(count)"
vector 178 Scenario.node[10].app[0] packetReceived:vector(packetBytes) ETV
attr interpolationmode none
attr source packetReceived
attr title "packets received, vector(packetBytes)"
vector 179 Scenario.node[10].app[0] throughput:vector ETV
attr source throughput(packetReceived)
attr title "throughput, vector"
attr unit bps
vector 180 Scenario.node[10].app[0] rcvdPkLifetime:vector ETV
attr interpolationmode none
attr source dataAge(packetReceived)
attr title "received packet lifetime, vector"
attr unit s
vector 181 Scenario.node[13].wlan[0].mac packetReceivedFromLower:vector(packetBytes) ETV
attr interpolationmode none
attr title "packets received from lower layer, vector(packetBytes)"
vector 182 Scenario.node[13].wlan[0].mac.dcf packetReceivedFromPeer:vector(packetBytes) ETV
attr interpolationmode none
attr title "packets received, vector(packetBytes)"
vector 183 Scenario.node[13].wlan[0].mac.dcf packetReceivedFromPeerMulticast:vector(packetBytes) ETV
attr interpolationmode none
attr source ieee80211Multicast(packetReceivedFromPeer)
attr title "packets received: multicast, vector(packetBytes)"
vector 184 Scenario.node[13].wlan[0].mac.dcf packetReceivedFromPeerWithoutRetry:vector(packetBytes) ETV
attr interpolationmode none
attr source ieee80211NotRetry(packetReceivedFromPeer)
attr title "packets received: without retry, vector(packetBytes)"
vector 185 Scenario.node[13].wlan[0].mac packetSentToUpper:vector(packetBytes) ETV
attr interpolationmode none
attr title "packets sent to upper layer, vector(packetBytes)"
vector 186 Scenario.node[13].udp packetReceived:vector(packetBytes) ETV
attr interpolationmode none
attr source packetReceived
attr title "packets received, vector(packetBytes)"
vector 187 Scenario.node[13].udp passedUpPk:vector(count) ETV
attr interpolationmode none
attr source packetSentToUpper
attr title "packets passed up, vector(count)"
vector 188 Scenario.node[13].app[0] packetReceived:vector(packetBytes) ETV
attr interpolationmode none
attr source packetReceived
attr title "packets received, vector(packetBytes)"
vector 189 Scenario.node[13].app[0] throughput:vector ETV
attr source throughput(packetReceived)
attr title "throughput, vector"
attr unit bps
vector 190 Scenario.node[13].app[0] rcvdPkLifetime:vector ETV
attr interpolationmode none
attr source dataAge(packetReceived)
attr title "received packet lifetime, vector"
attr unit s
vector 191 Scenario.node[14].wlan[0].radio radioMode:vector ETV
attr interpolationmode sample-hold
attr source radioModeChanged
attr title "Radio mode, vector"
vector 192 Scenario.node[14].wlan[0].radio radioChannel:vector ETV
attr interpolationmode sample-hold
attr source radioChannelChanged
attr title "Radio channel, vector"
vector 193 Scenario.node[14].wlan[0].radio receptionState:vector ETV
attr interpolationmode sample-hold
attr source receptionStateChanged
attr title "Radio reception state, vector"
vector 194 Scenario.node[14].wlan[0].mac.dcf.recoveryProcedure contentionWindowChanged:vector ETV
attr interpolationmode sample-hold
attr title "contention window, vector"
vector 195 Scenario.node[15].wlan[0].radio radioMode:vector ETV
attr interpolationmode sample-hold
attr source radioModeChanged
attr title "Radio mode, vector"
vector 196 Scenario.node[15].wlan[0].radio radioChannel:vector ETV
attr interpolationmode sample-hold
attr source radioChannelChanged
attr title "Radio channel, vector"
vector 197 Scenario.node[15].wlan[0].radio receptionState:vector ETV
attr interpolationmode sample-hold
attr source receptionStateChanged
attr title "Radio reception state, vector"
vector 198 Scenario.node[15].wlan[0].mac.dcf.recoveryProcedure contentionWindowChanged:vector ETV
attr interpolationmode sample-hold
attr title "contention window, vector"
vector 199 Scenario.node[16].wlan[0].radio radioMode:vector ETV
attr interpolationmode sample-hold
attr source radioModeChanged
attr title "Radio mode, vector"
vector 200 Scenario.node[16].wlan[0].radio radioChannel:vector ETV
attr interpolationmode sample-hold
attr source radioChannelChanged
attr title "Radio channel, vector"
vector 201 Scenario.node[16].wlan[0].radio receptionState:vector ETV
attr interpolationmode sample-hold
attr source receptionStateChanged
attr title "Radio reception state, vector"
vector 202 Scenario.node[16].wlan[0].mac.dcf.recoveryProcedure contentionWindowChanged:vector ETV
attr interpolationmode sample-hold
attr title "contention window, vector"
vector 203 Scenario.node[17].wlan[0].radio radioMode:vector ETV
attr interpolationmode sample-hold
attr source radioModeChanged
attr title "Radio mode, vector"
vector 204 Scenario.node[17].wlan[0].radio radioChannel:vector ETV
attr interpolationmode sample-hold
attr source radioChannelChanged
attr title "Radio channel, vector"
vector 205 Scenario.node[17].wlan[0].radio receptionState:vector ETV
attr interpolationmode sample-hold
attr source receptionStateChanged
attr title "Radio reception state, vector"
vector 206 Scenario.node[17].wlan[0].mac.dcf.recoveryProcedure contentionWindowChanged:vector ETV
attr interpolationmode sample-hold
attr title "contention window, vector"
vector 207 Scenario.node[18].wlan[0].radio radioMode:vector ETV
attr interpolationmode sample-hold
attr source radioModeChanged
attr title "Radio mode, vector"
vector 208 Scenario.node[18].wlan[0].radio radioChannel:vector ETV
attr interpolationmode sample-hold
attr source radioChannelChanged
attr title "Radio channel, vector"
vector 209 Scenario.node[18].wlan[0].radio receptionState:vector ETV
attr interpolationmode sample-hold
attr source receptionStateChanged
attr title "Radio reception state, vector"
vector 210 Scenario.node[18].wlan[0].mac.dcf.recoveryProcedure contentionWindowChanged:vector ETV
attr interpolationmode sample-hold
attr title "contention window, vector"
vector 211 Scenario.node[19].wlan[0].radio radioMode:vector ETV
attr interpolationmode sample-hold
attr source radioModeChanged
attr title "Radio mode, vector"
vector 212 Scenario.node[19].wlan[0].radio radioChannel:vector ETV
attr interpolationmode sample-hold
attr source radioChannelChanged
attr title "Radio channel, vector"
vector 213 Scenario.node[19].wlan[0].radio receptionState:vector ETV
attr interpolationmode sample-hold
attr source receptionStateChanged
attr title "Radio reception state, vector"
vector 214 Scenario.node[19].wlan[0].mac.dcf.recoveryProcedure contentionWindowChanged:vector ETV
attr interpolationmode sample-hold
attr title "contention window, vector"
vector 215 Scenario.node[3].app[0] throughput:vector ETV
attr source throughput(packetReceived)
attr title "throughput, vector"
attr unit bps
15	41	3.1	15
14	41	3.1	1
12	41	3.1	0
12	41	3.1	0
12	41	3.1	2
13	41	3.1	3
215	394	0.1	0
215	394	0.2	0
215	394	0.3	0
215	394	0.4	0
215	394	0.5	0
215	394	0.6	0
215	394	0.7	0
215	394	0.8	0
215	394	0.9	0
215	394	1	0
215	394	1.1	0
215	394	1.2	0
215	394	1.3	0
215	394	1.4	0
215	394	1.5	0
215	394	1.6	0
215	394	1.7	0
215	394	1.8	0
215	394	1.9	0
215	394	2	0
215	394	2.1	0
215	394	2.2	0
215	394	2.3	0
215	394	2.4	0
215	394	2.5	0
215	394	2.6	0
215	394	2.7	0
215	394	2.8	0
215	394	2.9	0
215	394	3	0
215	394	3.1	0
215	394	3.2	0
215	394	3.3	0
215	394	3.4	0
215	394	3.5	0
215	394	3.6	0
215	394	3.7	0
215	394	3.8	0
215	394	3.9	0
215	394	4	0
215	394	4.1	0
215	394	4.2	0
215	394	4.3	0
215	394	4.4	0
215	394	4.5	0
215	394	4.6	0
215	394	4.7	0
215	394	4.8	0
215	394	4.9	0
215	394	5	0
215	394	5.1	0
215	394	5.2	0
215	394	5.3	0
215	394	5.4	0
215	394	5.5	0
215	394	5.6	0
215	394	5.7	0
215	394	5.8	0
215	394	5.9	0
215	394	6	0
215	394	6.1	0
215	394	6.2	0
215	394	6.3	0
215	394	6.4	0
215	394	6.5	0
215	394	6.6	0
215	394	6.7	0
215	394	6.8	0
215	394	6.9	0
215	394	7	0
215	394	7.1	0
215	394	7.2	0
215	394	7.3	0
215	394	7.4	0
215	394	7.5	0
215	394	7.6	0
215	394	7.7	0
215	394	7.8	0
215	394	7.9	0
215	394	8	0
215	394	8.1	0
215	394	8.2	0
215	394	8.3	0
215	394	8.4	0
215	394	8.5	0
215	394	8.6	0
215	394	8.7	0
215	394	8.8	0
215	394	8.9	0
215	394	9	0
215	394	9.1	0
215	394	9.2	0
215	394	9.3	0
215	394	9.4	0
215	394	9.5	0
215	394	9.6	0
215	394	9.7	0
215	394	9.8	0
215	394	9.9	0
215	394	10	0
215	394	10.1	0
215	394	10.2	0
215	394	10.3	0
215	394	10.4	0
215	394	10.5	0
215	394	10.6	0
215	394	10.7	0
215	394	10.8	0
215	394	10.9	0
215	394	11	0
215	394	11.1	0
215	394	11.2	0
215	394	11.3	0
215	394	11.4	0
215	394	11.5	0
215	394	11.6	0
215	394	11.7	0
215	394	11.8	0
215	394	11.9	0
215	394	12	0
215	394	12.1	0
215	394	12.2	0
215	394	12.3	0
215	394	12.4	0
215	394	12.5	0
215	394	12.6	0
215	394	12.7	0
215	394	12.8	0
215	394	12.9	0
215	394	13	0
215	394	13.1	0
215	394	13.2	0
215	394	13.3	0
215	394	13.4	0
215	394	13.5	0
215	394	13.6	0
215	394	13.7	0
215	394	13.8	0
215	394	13.9	0
215	394	14	0
215	394	14.1	0
215	394	14.2	0
215	394	14.3	0
215	394	14.4	0
215	394	14.5	0
215	394	14.6	0
215	394	14.7	0
215	394	14.8	0
215	394	14.9	0
215	394	15	0
215	394	15.1	0
215	394	15.2	0
215	394	15.3	0
215	394	15.4	0
215	394	15.5	0
215	394	15.6	0
215	394	15.7	0
215	394	15.8	0
215	394	15.9	0
215	394	16	0
215	394	16.1	0
215	394	16.2	0
215	394	16.3	0
215	394	16.4	0
215	394	16.5	0
215	394	16.6	0
215	394	16.7	0
215	394	16.8	0
215	394	16.9	0
215	394	17	0
215	394	17.1	0
215	394	17.2	0
215	394	17.3	0
215	394	17.4	0
215	394	17.5	0
215	394	17.6	0
215	394	17.7	0
215	394	17.8	0
215	394	17.9	0
215	394	18	0
215	394	18.1	0
215	394	18.2	0
215	394	18.3	0
215	394	18.4	0
215	394	18.5	0
215	394	18.6	0
215	394	18.7	0
215	394	18.8	0
215	394	18.9	0
215	394	19	0
215	394	19.1	0
215	394	19.2	0
215	394	19.3	0
215	394	19.4	0
215	394	19.5	0
215	394	19.6	0
215	394	19.7	0
215	394	19.8	0
215	394	19.9	0
215	394	20	0
215	394	20.1	0
vector 216 Scenario.node[20].wlan[0].radio radioMode:vector ETV
attr interpolationmode sample-hold
attr source radioModeChanged
attr title "Radio mode, vector"
vector 217 Scenario.node[20].wlan[0].radio radioChannel:vector ETV
attr interpolationmode sample-hold
attr source radioChannelChanged
attr title "Radio channel, vector"
vector 218 Scenario.node[20].wlan[0].radio receptionState:vector ETV
attr interpolationmode sample-hold
attr source receptionStateChanged
attr title "Radio reception state, vector"
vector 219 Scenario.node[20].wlan[0].mac.dcf.recoveryProcedure contentionWindowChanged:vector ETV
attr interpolationmode sample-hold
attr title "contention window, vector"
vector 220 Scenario.node[21].wlan[0].radio radioMode:vector ETV
attr interpolationmode sample-hold
attr source radioModeChanged
attr title "Radio mode, vector"
vector 221 Scenario.node[21].wlan[0].radio radioChannel:vector ETV
attr interpolationmode sample-hold
attr source radioChannelChanged
attr title "Radio channel, vector"
vector 222 Scenario.node[21].wlan[0].radio receptionState:vector ETV
attr interpolationmode sample-hold
attr source receptionStateChanged
attr title "Radio reception state, vector"
vector 223 Scenario.node[21].wlan[0].mac.dcf.recoveryProcedure contentionWindowChanged:vector ETV
attr interpolationmode sample-hold
attr title "contention window, vector"
vector 224 Scenario.node[22].wlan[0].radio radioMode:vector ETV
attr interpolationmode sample-hold
attr source radioModeChanged
attr title "Radio mode, vector"
vector 225 Scenario.node[22].wlan[0].radio radioChannel:vector ETV
attr interpolationmode sample-hold
attr source radioChannelChanged
attr title "Radio channel, vector"
vector 226 Scenario.node[22].wlan[0].radio receptionState:vector ETV
attr interpolationmode sample-hold
attr source receptionStateChanged
attr title "Radio reception state, vector"
vector 227 Scenario.node[22].wlan[0].mac.dcf.recoveryProcedure contentionWindowChanged:vector ETV
attr interpolationmode sample-hold
attr title "contention window, vector"
vector 228 Scenario.node[23].wlan[0].radio radioMode:vector ETV
attr interpolationmode sample-hold
attr source radioModeChanged
attr title "Radio mode, vector"
vector 229 Scenario.node[23].wlan[0].radio radioChannel:vector ETV
attr interpolationmode sample-hold
attr source radioChannelChanged
attr title "Radio channel, vector"
vector 230 Scenario.node[23].wlan[0].radio receptionState:vector ETV
attr interpolationmode sample-hold
attr source receptionStateChanged
attr title "Radio reception state, vector"
vector 231 Scenario.node[23].wlan[0].mac.dcf.recoveryProcedure contentionWindowChanged:vector ETV
attr interpolationmode sample-hold
attr title "contention window, vector"
vector 232 Scenario.node[24].wlan[0].radio radioMode:vector ETV
attr interpolationmode sample-hold
attr source radioModeChanged
attr title "Radio mode, vector"
vector 233 Scenario.node[24].wlan[0].radio radioChannel:vector ETV
attr interpolationmode sample-hold
attr source radioChannelChanged
attr title "Radio channel, vector"
vector 234 Scenario.node[24].wlan[0].radio receptionState:vector ETV
attr interpolationmode sample-hold
attr source receptionStateChanged
attr title "Radio reception state, vector"
vector 235 Scenario.node[24].wlan[0].mac.dcf.recoveryProcedure contentionWindowChanged:vector ETV
attr interpolationmode sample-hold
attr title "contention window, vector"
vector 236 Scenario.node[16].wlan[0].mac packetReceivedFromLower:vector(packetBytes) ETV
attr interpolationmode none
attr title "packets received from lower layer, vector(packetBytes)"
vector 237 Scenario.node[16].wlan[0].mac.dcf packetReceivedFromPeer:vector(packetBytes) ETV
attr interpolationmode none
attr title "packets received, vector(packetBytes)"
vector 238 Scenario.node[16].wlan[0].mac.dcf packetReceivedFromPeerMulticast:vector(packetBytes) ETV
attr interpolationmode none
attr source ieee80211Multicast(packetReceivedFromPeer)
attr title "packets received: multicast, vector(packetBytes)"
vector 239 Scenario.node[16].wlan[0].mac.dcf packetReceivedFromPeerWithoutRetry:vector(packetBytes) ETV
attr interpolationmode none
attr source ieee80211NotRetry(packetReceivedFromPeer)
attr title "packets received: without retry, vector(packetBytes)"
vector 240 Scenario.node[16].wlan[0].mac packetSentToUpper:vector(packetBytes) ETV
attr interpolationmode none
attr title "packets sent to upper layer, vector(packetBytes)"
vector 241 Scenario.node[16].udp packetReceived:vector(packetBytes) ETV
attr interpolationmode none
attr source packetReceived
attr title "packets received, vector(packetBytes)"
vector 242 Scenario.node[16].udp passedUpPk:vector(count) ETV
attr interpolationmode none
attr source packetSentToUpper
attr title "packets passed up, vector(count)"
vector 243 Scenario.node[16].app[0] packetReceived:vector(packetBytes) ETV
attr interpolationmode none
attr source packetReceived
attr title "packets received, vector(packetBytes)"
vector 244 Scenario.node[16].app[0] throughput:vector ETV
attr source throughput(packetReceived)
attr title "throughput, vector"
attr unit bps
vector 245 Scenario.node[16].app[0] rcvdPkLifetime:vector ETV
attr interpolationmode none
attr source dataAge(packetReceived)
attr title "received packet lifetime, vector"
attr unit s
vector 246 Scenario.node[17].wlan[0].mac packetReceivedFromLower:vector(packetBytes) ETV
attr interpolationmode none
attr title "packets received from lower layer, vector(packetBytes)"
vector 247 Scenario.node[17].wlan[0].mac.dcf packetReceivedFromPeer:vector(packetBytes) ETV
attr interpolationmode none
attr title "packets received, vector(packetBytes)"
vector 248 Scenario.node[17].wlan[0].mac.dcf packetReceivedFromPeerMulticast:vector(packetBytes) ETV
attr interpolationmode none
attr source ieee80211Multicast(packetReceivedFromPeer)
attr title "packets received: multicast, vector(packetBytes)"
vector 249 Scenario.node[17].wlan[0].mac.dcf packetReceivedFromPeerWithoutRetry:vector(packetBytes) ETV
attr interpolationmode none
attr source ieee80211NotRetry(packetReceivedFromPeer)
attr title "packets received: without retry, vector(packetBytes)"
vector 250 Scenario.node[17].wlan[0].mac packetSentToUpper:vector(packetBytes) ETV
attr interpolationmode none
attr title "packets sent to upper layer, vector(packetBytes)"
vector 251 Scenario.node[17].udp packetReceived:vector(packetBytes) ETV
attr interpolationmode none
attr source packetReceived
attr title "packets received, vector(packetBytes)"
vector 252 Scenario.node[17].udp passedUpPk:vector(count) ETV
attr interpolationmode none
attr source packetSentToUpper
attr title "packets passed up, vector(count)"
vector 253 Scenario.node[17].app[0] packetReceived:vector(packetBytes) ETV
attr interpolationmode none
attr source packetReceived
attr title "packets received, vector(packetBytes)"
vector 254 Scenario.node[17].app[0] throughput:vector ETV
attr source throughput(packetReceived)
attr title "throughput, vector"
attr unit bps
vector 255 Scenario.node[17].app[0] rcvdPkLifetime:vector ETV
attr interpolationmode none
attr source dataAge(packetReceived)
attr title "received packet lifetime, vector"
attr unit s
vector 256 Scenario.node[14].wlan[0].mac packetReceivedFromLower:vector(packetBytes) ETV
attr interpolationmode none
attr title "packets received from lower layer, vector(packetBytes)"
vector 257 Scenario.node[14].wlan[0].mac.dcf packetReceivedFromPeer:vector(packetBytes) ETV
attr interpolationmode none
attr title "packets received, vector(packetBytes)"
vector 258 Scenario.node[14].wlan[0].mac.dcf packetReceivedFromPeerMulticast:vector(packetBytes) ETV
attr interpolationmode none
attr source ieee80211Multicast(packetReceivedFromPeer)
attr title "packets received: multicast, vector(packetBytes)"
vector 259 Scenario.node[14].wlan[0].mac.dcf packetReceivedFromPeerWithoutRetry:vector(packetBytes) ETV
attr interpolationmode none
attr source ieee80211NotRetry(packetReceivedFromPeer)
attr title "packets received: without retry, vector(packetBytes)"
vector 260 Scenario.node[14].wlan[0].mac packetSentToUpper:vector(packetBytes) ETV
attr interpolationmode none
attr title "packets sent to upper layer, vector(packetBytes)"
vector 261 Scenario.node[14].udp packetReceived:vector(packetBytes) ETV
attr interpolationmode none
attr source packetReceived
attr title "packets received, vector(packetBytes)"
vector 262 Scenario.node[14].udp passedUpPk:vector(count) ETV
attr interpolationmode none
attr source packetSentToUpper
attr title "packets passed up, vector(count)"
vector 263 Scenario.node[14].app[0] packetReceived:vector(packetBytes) ETV
attr interpolationmode none
attr source packetReceived
attr title "packets received, vector(packetBytes)"
vector 264 Scenario.node[14].app[0] throughput:vector ETV
attr source throughput(packetReceived)
attr title "throughput, vector"
attr unit bps
vector 265 Scenario.node[14].app[0] rcvdPkLifetime:vector ETV
attr interpolationmode none
attr source dataAge(packetReceived)
attr title "received packet lifetime, vector"
attr unit s
vector 266 Scenario.node[20].wlan[0].mac packetReceivedFromLower:vector(packetBytes) ETV
attr interpolationmode none
attr title "packets received from lower layer, vector(packetBytes)"
vector 267 Scenario.node[20].wlan[0].mac.dcf packetReceivedFromPeer:vector(packetBytes) ETV
attr interpolationmode none
attr title "packets received, vector(packetBytes)"
vector 268 Scenario.node[20].wlan[0].mac.dcf packetReceivedFromPeerMulticast:vector(packetBytes) ETV
attr interpolationmode none
attr source ieee80211Multicast(packetReceivedFromPeer)
attr title "packets received: multicast, vector(packetBytes)"
vector 269 Scenario.node[20].wlan[0].mac.dcf packetReceivedFromPeerWithoutRetry:vector(packetBytes) ETV
attr interpolationmode none
attr source ieee80211NotRetry(packetReceivedFromPeer)
attr title "packets received: without retry, vector(packetBytes)"
vector 270 Scenario.node[20].wlan[0].mac packetSentToUpper:vector(packetBytes) ETV
attr interpolationmode none
attr title "packets sent to upper layer, vector(packetBytes)"
vector 271 Scenario.node[20].udp packetReceived:vector(packetBytes) ETV
attr interpolationmode none
attr source packetReceived
attr title "packets received, vector(packetBytes)"
vector 272 Scenario.node[20].udp passedUpPk:vector(count) ETV
attr interpolationmode none
attr source packetSentToUpper
attr title "packets passed up, vector(count)"
vector 273 Scenario.node[20].app[0] packetReceived:vector(packetBytes) ETV
attr interpolationmode none
attr source packetReceived
attr title "packets received, vector(packetBytes)"
vector 274 Scenario.node[20].app[0] throughput:vector ETV
attr source throughput(packetReceived)
attr title "throughput, vector"
attr unit bps
vector 275 Scenario.node[20].app[0] rcvdPkLifetime:vector ETV
attr interpolationmode none
attr source dataAge(packetReceived)
attr title "received packet lifetime, vector"
attr unit s
vector 276 Scenario.node[24].wlan[0].mac packetReceivedFromLower:vector(packetBytes) ETV
attr interpolationmode none
attr title "packets received from lower layer, vector(packetBytes)"
vector 277 Scenario.node[24].wlan[0].mac.dcf packetReceivedFromPeer:vector(packetBytes) ETV
attr interpolationmode none
attr title "packets received, vector(packetBytes)"
vector 278 Scenario.node[24].wlan[0].mac.dcf packetReceivedFromPeerMulticast:vector(packetBytes) ETV
attr interpolationmode none
attr source ieee80211Multicast(packetReceivedFromPeer)
attr title "packets received: multicast, vector(packetBytes)"
vector 279 Scenario.node[24].wlan[0].mac.dcf packetReceivedFromPeerWithoutRetry:vector(packetBytes) ETV
attr interpolationmode none
attr source ieee80211NotRetry(packetReceivedFromPeer)
attr title "packets received: without retry, vector(packetBytes)"
vector 280 Scenario.node[24].wlan[0].mac packetSentToUpper:vector(packetBytes) ETV
attr interpolationmode none
attr title "packets sent to upper layer, vector(packetBytes)"
vector 281 Scenario.node[24].udp packetReceived:vector(packetBytes) ETV
attr interpolationmode none
attr source packetReceived
attr title "packets received, vector(packetBytes)"
vector 282 Scenario.node[24].udp passedUpPk:vector(count) ETV
attr interpolationmode none
attr source packetSentToUpper
attr title "packets passed up, vector(count)"
vector 283 Scenario.node[24].app[0] packetReceived:vector(packetBytes) ETV
attr interpolationmode none
attr source packetReceived
attr title "packets received, vector(packetBytes)"
vector 284 Scenario.node[24].app[0] throughput:vector ETV
attr source throughput(packetReceived)
attr title "throughput, vector"
attr unit bps
vector 285 Scenario.node[24].app[0] rcvdPkLifetime:vector ETV
attr interpolationmode none
attr source dataAge(packetReceived)
attr title "received packet lifetime, vector"
attr unit s
vector 286 Scenario.node[22].wlan[0].mac packetReceivedFromLower:vector(packetBytes) ETV
attr interpolationmode none
attr title "packets received from lower layer, vector(packetBytes)"
vector 287 Scenario.node[22].wlan[0].mac.dcf packetReceivedFromPeer:vector(packetBytes) ETV
attr interpolationmode none
attr title "packets received, vector(packetBytes)"
vector 288 Scenario.node[22].wlan[0].mac.dcf packetReceivedFromPeerMulticast:vector(packetBytes) ETV
attr interpolationmode none
attr source ieee80211Multicast(packetReceivedFromPeer)
attr title "packets received: multicast, vector(packetBytes)"
vector 289 Scenario.node[22].wlan[0].mac.dcf packetReceivedFromPeerWithoutRetry:vector(packetBytes) ETV
attr interpolationmode none
attr source ieee80211NotRetry(packetReceivedFromPeer)
attr title "packets received: without retry, vector(packetBytes)"
vector 290 Scenario.node[22].wlan[0].mac packetSentToUpper:vector(packetBytes) ETV
attr interpolationmode none
attr title "packets sent to upper layer, vector(packetBytes)"
vector 291 Scenario.node[22].udp packetReceived:vector(packetBytes) ETV
attr interpolationmode none
attr source packetReceived
attr title "packets received, vector(packetBytes)"
vector 292 Scenario.node[22].udp passedUpPk:vector(count) ETV
attr interpolationmode none
attr source packetSentToUpper
attr title "packets passed up, vector(count)"
vector 293 Scenario.node[22].app[0] packetReceived:vector(packetBytes) ETV
attr interpolationmode none
attr source packetReceived
attr title "packets received, vector(packetBytes)"
vector 294 Scenario.node[22].app[0] throughput:vector ETV
attr source throughput(packetReceived)
attr title "throughput, vector"
attr unit bps
vector 295 Scenario.node[22].app[0] rcvdPkLifetime:vector ETV
attr interpolationmode none
attr source dataAge(packetReceived)
attr title "received packet lifetime, vector"
attr unit s
vector 296 Scenario.node[19].wlan[0].mac packetReceivedFromLower:vector(packetBytes) ETV
attr interpolationmode none
attr title "packets received from lower layer, vector(packetBytes)"
vector 297 Scenario.node[19].wlan[0].mac.dcf packetReceivedFromPeer:vector(packetBytes) ETV
attr interpolationmode none
attr title "packets received, vector(packetBytes)"
vector 298 Scenario.node[19].wlan[0].mac.dcf packetReceivedFromPeerMulticast:vector(packetBytes) ETV
attr interpolationmode none
attr source ieee80211Multicast(packetReceivedFromPeer)
attr title "packets received: multicast, vector(packetBytes)"
vector 299 Scenario.node[19].wlan[0].mac.dcf packetReceivedFromPeerWithoutRetry:vector(packetBytes) ETV
attr interpolationmode none
attr source ieee80211NotRetry(packetReceivedFromPeer)
attr title "packets received: without retry, vector(packetBytes)"
vector 300 Scenario.node[19].wlan[0].mac packetSentToUpper:vector(packetBytes) ETV
attr interpolationmode none
attr title "packets sent to upper layer, vector(packetBytes)"
vector 301 Scenario.node[19].udp packetReceived:vector(packetBytes) ETV
attr interpolationmode none
attr source packetReceived
attr title "packets received, vector(packetBytes)"
vector 302 Scenario.node[19].udp passedUpPk:vector(count) ETV
attr interpolationmode none
attr source packetSentToUpper
attr title "packets passed up, vector(count)"
vector 303 Scenario.node[19].app[0] packetReceived:vector(packetBytes) ETV
attr interpolationmode none
attr source packetReceived
attr title "packets received, vector(packetBytes)"
vector 304 Scenario.node[19].app[0] throughput:vector ETV
attr source throughput(packetReceived)
attr title "throughput, vector"
attr unit bps
vector 305 Scenario.node[19].app[0] rcvdPkLifetime:vector ETV
attr interpolationmode none
attr source dataAge(packetReceived)
attr title "received packet lifetime, vector"
attr unit s
vector 306 Scenario.node[18].wlan[0].mac packetReceivedFromLower:vector(packetBytes) ETV
attr interpolationmode none
attr title "packets received from lower layer, vector(packetBytes)"
vector 307 Scenario.node[18].wlan[0].mac.dcf packetReceivedFromPeer:vector(packetBytes) ETV
attr interpolationmode none
attr title "packets received, vector(packetBytes)"
vector 308 Scenario.node[18].wlan[0].mac.dcf packetReceivedFromPeerMulticast:vector(packetBytes) ETV
attr interpolationmode none
attr source ieee80211Multicast(packetReceivedFromPeer)
attr title "packets received: multicast, vector(packetBytes)"
vector 309 Scenario.node[18].wlan[0].mac.dcf packetReceivedFromPeerWithoutRetry:vector(packetBytes) ETV
attr interpolationmode none
attr source ieee80211NotRetry(packetReceivedFromPeer)
attr title "packets received: without retry, vector(packetBytes)"
vector 310 Scenario.node[18].wlan[0].mac packetSentToUpper:vector(packetBytes) ETV
attr interpolationmode none
attr title "packets sent to upper layer, vector(packetBytes)"
vector 311 Scenario.node[18].udp packetReceived:vector(packetBytes) ETV
attr interpolationmode none
attr source packetReceived
attr title "packets received, vector(packetBytes)"
vector 312 Scenario.node[18].udp passedUpPk:vector(count) ETV
attr interpolationmode none
attr source packetSentToUpper
attr title "packets passed up, vector(count)"
vector 313 Scenario.node[18].app[0] packetReceived:vector(packetBytes) ETV
attr interpolationmode none
attr source packetReceived
attr title "packets received, vector(packetBytes)"
vector 314 Scenario.node[18].app[0] throughput:vector ETV
attr source throughput(packetReceived)
attr title "throughput, vector"
attr unit bps
vector 315 Scenario.node[18].app[0] rcvdPkLifetime:vector ETV
attr interpolationmode none
attr source dataAge(packetReceived)
attr title "received packet lifetime, vector"
attr unit s
vector 316 Scenario.node[25].wlan[0].radio radioMode:vector ETV
attr interpolationmode sample-hold
attr source radioModeChanged
attr title "Radio mode, vector"
vector 317 Scenario.node[25].wlan[0].radio radioChannel:vector ETV
attr interpolationmode sample-hold
attr source radioChannelChanged
attr title "Radio channel, vector"
vector 318 Scenario.node[25].wlan[0].radio receptionState:vector ETV
attr interpolationmode sample-hold
attr source receptionStateChanged
attr title "Radio reception state, vector"
vector 319 Scenario.node[25].wlan[0].mac.dcf.recoveryProcedure contentionWindowChanged:vector ETV
attr interpolationmode sample-hold
attr title "contention window, vector"
vector 320 Scenario.node[26].wlan[0].radio radioMode:vector ETV
attr interpolationmode sample-hold
attr source radioModeChanged
attr title "Radio mode, vector"
vector 321 Scenario.node[26].wlan[0].radio radioChannel:vector ETV
attr interpolationmode sample-hold
attr source radioChannelChanged
attr title "Radio channel, vector"
vector 322 Scenario.node[26].wlan[0].radio receptionState:vector ETV
attr interpolationmode sample-hold
attr source receptionStateChanged
attr title "Radio reception state, vector"
vector 323 Scenario.node[26].wlan[0].mac.dcf.recoveryProcedure contentionWindowChanged:vector ETV
attr interpolationmode sample-hold
attr title "contention window, vector"
vector 324 Scenario.node[27].wlan[0].radio radioMode:vector ETV
attr interpolationmode sample-hold
attr source radioModeChanged
attr title "Radio mode, vector"
vector 325 Scenario.node[27].wlan[0].radio radioChannel:vector ETV
attr interpolationmode sample-hold
attr source radioChannelChanged
attr title "Radio channel, vector"
vector 326 Scenario.node[27].wlan[0].radio receptionState:vector ETV
attr interpolationmode sample-hold
attr source receptionStateChanged
attr title "Radio reception state, vector"
vector 327 Scenario.node[27].wlan[0].mac.dcf.recoveryProcedure contentionWindowChanged:vector ETV
attr interpolationmode sample-hold
attr title "contention window, vector"
vector 328 Scenario.node[28].wlan[0].radio radioMode:vector ETV
attr interpolationmode sample-hold
attr source radioModeChanged
attr title "Radio mode, vector"
vector 329 Scenario.node[28].wlan[0].radio radioChannel:vector ETV
attr interpolationmode sample-hold
attr source radioChannelChanged
attr title "Radio channel, vector"
vector 330 Scenario.node[28].wlan[0].radio receptionState:vector ETV
attr interpolationmode sample-hold
attr source receptionStateChanged
attr title "Radio reception state, vector"
vector 331 Scenario.node[28].wlan[0].mac.dcf.recoveryProcedure contentionWindowChanged:vector ETV
attr interpolationmode sample-hold
attr title "contention window, vector"
vector 332 Scenario.node[29].wlan[0].radio radioMode:vector ETV
attr interpolationmode sample-hold
attr source radioModeChanged
attr title "Radio mode, vector"
vector 333 Scenario.node[29].wlan[0].radio radioChannel:vector ETV
attr interpolationmode sample-hold
attr source radioChannelChanged
attr title "Radio channel, vector"
vector 334 Scenario.node[29].wlan[0].radio receptionState:vector ETV
attr interpolationmode sample-hold
attr source receptionStateChanged
attr title "Radio reception state, vector"
vector 335 Scenario.node[29].wlan[0].mac.dcf.recoveryProcedure contentionWindowChanged:vector ETV
attr interpolationmode sample-hold
attr title "contention window, vector"
vector 336 Scenario.node[30].wlan[0].radio radioMode:vector ETV
attr interpolationmode sample-hold
attr source radioModeChanged
attr title "Radio mode, vector"
vector 337 Scenario.node[30].wlan[0].radio radioChannel:vector ETV
attr interpolationmode sample-hold
attr source radioChannelChanged
attr title "Radio channel, vector"
vector 338 Scenario.node[30].wlan[0].radio receptionState:vector ETV
attr interpolationmode sample-hold
attr source receptionStateChanged
attr title "Radio reception state, vector"
vector 339 Scenario.node[30].wlan[0].mac.dcf.recoveryProcedure contentionWindowChanged:vector ETV
attr interpolationmode sample-hold
attr title "contention window, vector"
vector 340 Scenario.node[29].wlan[0].mac packetReceivedFromLower:vector(packetBytes) ETV
attr interpolationmode none
attr title "packets received from lower layer, vector(packetBytes)"
vector 341 Scenario.node[29].wlan[0].mac.dcf packetReceivedFromPeer:vector(packetBytes) ETV
attr interpolationmode none
attr title "packets received, vector(packetBytes)"
vector 342 Scenario.node[29].wlan[0].mac.dcf packetReceivedFromPeerMulticast:vector(packetBytes) ETV
attr interpolationmode none
attr source ieee80211Multicast(packetReceivedFromPeer)
attr title "packets received: multicast, vector(packetBytes)"
vector 343 Scenario.node[29].wlan[0].mac.dcf packetReceivedFromPeerWithoutRetry:vector(packetBytes) ETV
attr interpolationmode none
attr source ieee80211NotRetry(packetReceivedFromPeer)
attr title "packets received: without retry, vector(packetBytes)"
vector 344 Scenario.node[29].wlan[0].mac packetSentToUpper:vector(packetBytes) ETV
attr interpolationmode none
attr title "packets sent to upper layer, vector(packetBytes)"
vector 345 Scenario.node[29].udp packetReceived:vector(packetBytes) ETV
attr interpolationmode none
attr source packetReceived
attr title "packets received, vector(packetBytes)"
vector 346 Scenario.node[29].udp passedUpPk:vector(count) ETV
attr interpolationmode none
attr source packetSentToUpper
attr title "packets passed up, vector(count)"
vector 347 Scenario.node[29].app[0] packetReceived:vector(packetBytes) ETV
attr interpolationmode none
attr source packetReceived
attr title "packets received, vector(packetBytes)"
vector 348 Scenario.node[29].app[0] throughput:vector ETV
attr source throughput(packetReceived)
attr title "throughput, vector"
attr unit bps
vector 349 Scenario.node[29].app[0] rcvdPkLifetime:vector ETV
attr interpolationmode none
attr source dataAge(packetReceived)
attr title "received packet lifetime, vector"
attr unit s
vector 350 Scenario.node[27].wlan[0].mac packetReceivedFromLower:vector(packetBytes) ETV
attr interpolationmode none
attr title "packets received from lower layer, vector(packetBytes)"
vector 351 Scenario.node[27].wlan[0].mac.dcf packetReceivedFromPeer:vector(packetBytes) ETV
attr interpolationmode none
attr title "packets received, vector(packetBytes)"
vector 352 Scenario.node[27].wlan[0].mac.dcf packetReceivedFromPeerMulticast:vector(packetBytes) ETV
attr interpolationmode none
attr source ieee80211Multicast(packetReceivedFromPeer)
attr title "packets received: multicast, vector(packetBytes)"
vector 353 Scenario.node[27].wlan[0].mac.dcf packetReceivedFromPeerWithoutRetry:vector(packetBytes) ETV
attr interpolationmode none
attr source ieee80211NotRetry(packetReceivedFromPeer)
attr title "packets received: without retry, vector(packetBytes)"
vector 354 Scenario.node[27].wlan[0].mac packetSentToUpper:vector(packetBytes) ETV
attr interpolationmode none
attr title "packets sent to upper layer, vector(packetBytes)"
vector 355 Scenario.node[27].udp packetReceived:vector(packetBytes) ETV
attr interpolationmode none
attr source packetReceived
attr title "packets received, vector(packetBytes)"
vector 356 Scenario.node[27].udp passedUpPk:vector(count) ETV
attr interpolationmode none
attr source packetSentToUpper
attr title "packets passed up, vector(count)"
vector 357 Scenario.node[27].app[0] packetReceived:vector(packetBytes) ETV
attr interpolationmode none
attr source packetReceived
attr title "packets received, vector(packetBytes)"
vector 358 Scenario.node[27].app[0] throughput:vector ETV
attr source throughput(packetReceived)
attr title "throughput, vector"
attr unit bps
vector 359 Scenario.node[27].app[0] rcvdPkLifetime:vector ETV
attr interpolationmode none
attr source dataAge(packetReceived)
attr title "received packet lifetime, vector"
attr unit s
vector 360 Scenario.node[25].wlan[0].mac packetReceivedFromLower:vector(packetBytes) ETV
attr interpolationmode none
attr title "packets received from lower layer, vector(packetBytes)"
vector 361 Scenario.node[25].wlan[0].mac.dcf packetReceivedFromPeer:vector(packetBytes) ETV
attr interpolationmode none
attr title "packets received, vector(packetBytes)"
vector 362 Scenario.node[25].wlan[0].mac.dcf packetReceivedFromPeerMulticast:vector(packetBytes) ETV
attr interpolationmode none
attr source ieee80211Multicast(packetReceivedFromPeer)
attr title "packets received: multicast, vector(packetBytes)"
vector 363 Scenario.node[25].wlan[0].mac.dcf packetReceivedFromPeerWithoutRetry:vector(packetBytes) ETV
attr interpolationmode none
attr source ieee80211NotRetry(packetReceivedFromPeer)
attr title "packets received: without retry, vector(packetBytes)"
vector 364 Scenario.node[25].wlan[0].mac packetSentToUpper:vector(packetBytes) ETV
attr interpolationmode none
attr title "packets sent to upper layer, vector(packetBytes)"
vector 365 Scenario.node[25].udp packetReceived:vector(packetBytes) ETV
attr interpolationmode none
attr source packetReceived
attr title "packets received, vector(packetBytes)"
vector 366 Scenario.node[25].udp passedUpPk:vector(count) ETV
attr interpolationmode none
attr source packetSentToUpper
attr title "packets passed up, vector(count)"
vector 367 Scenario.node[25].app[0] packetReceived:vector(packetBytes) ETV
attr interpolationmode none
attr source packetReceived
attr title "packets received, vector(packetBytes)"
vector 368 Scenario.node[25].app[0] throughput:vector ETV
attr source throughput(packetReceived)
attr title "throughput, vector"
attr unit bps
vector 369 Scenario.node[25].app[0] rcvdPkLifetime:vector ETV
attr interpolationmode none
attr source dataAge(packetReceived)
attr title "received packet lifetime, vector"
attr unit s
vector 370 Scenario.node[28].wlan[0].mac packetReceivedFromLower:vector(packetBytes) ETV
attr interpolationmode none
attr title "packets received from lower layer, vector(packetBytes)"
vector 371 Scenario.node[28].wlan[0].mac.dcf packetReceivedFromPeer:vector(packetBytes) ETV
attr interpolationmode none
attr title "packets received, vector(packetBytes)"
vector 372 Scenario.node[28].wlan[0].mac.dcf packetReceivedFromPeerMulticast:vector(packetBytes) ETV
attr interpolationmode none
attr source ieee80211Multicast(packetReceivedFromPeer)
attr title "packets received: multicast, vector(packetBytes)"
vector 373 Scenario.node[28].wlan[0].mac.dcf packetReceivedFromPeerWithoutRetry:vector(packetBytes) ETV
attr interpolationmode none
attr source ieee80211NotRetry(packetReceivedFromPeer)
attr title "packets received: without retry, vector(packetBytes)"
vector 374 Scenario.node[28].wlan[0].mac packetSentToUpper:vector(packetBytes) ETV
attr interpolationmode none
attr title "packets sent to upper layer, vector(packetBytes)"
vector 375 Scenario.node[28].udp packetReceived:vector(packetBytes) ETV
attr interpolationmode none
attr source packetReceived
attr title "packets received, vector(packetBytes)"
vector 376 Scenario.node[28].udp passedUpPk:vector(count) ETV
attr interpolationmode none
attr source packetSentToUpper
attr title "packets passed up, vector(count)"
vector 377 Scenario.node[28].app[0] packetReceived:vector(packetBytes) ETV
attr interpolationmode none
attr source packetReceived
attr title "packets received, vector(packetBytes)"
vector 378 Scenario.node[28].app[0] throughput:vector ETV
attr source throughput(packetReceived)
attr title "throughput, vector"
attr unit bps
vector 379 Scenario.node[28].app[0] rcvdPkLifetime:vector ETV
attr interpolationmode none
attr source dataAge(packetReceived)
attr title "received packet lifetime, vector"
attr unit s
vector 380 Scenario.node[30].wlan[0].mac packetReceivedFromLower:vector(packetBytes) ETV
attr interpolationmode none
attr title "packets received from lower layer, vector(packetBytes)"
vector 381 Scenario.node[30].wlan[0].mac.dcf packetReceivedFromPeer:vector(packetBytes) ETV
attr interpolationmode none
attr title "packets received, vector(packetBytes)"
vector 382 Scenario.node[30].wlan[0].mac.dcf packetReceivedFromPeerMulticast:vector(packetBytes) ETV
attr interpolationmode none
attr source ieee80211Multicast(packetReceivedFromPeer)
attr title "packets received: multicast, vector(packetBytes)"
vector 383 Scenario.node[30].wlan[0].mac.dcf packetReceivedFromPeerWithoutRetry:vector(packetBytes) ETV
attr interpolationmode none
attr source ieee80211NotRetry(packetReceivedFromPeer)
attr title "packets received: without retry, vector(packetBytes)"
vector 384 Scenario.node[30].wlan[0].mac packetSentToUpper:vector(packetBytes) ETV
attr interpolationmode none
attr title "packets sent to upper layer, vector(packetBytes)"
vector 385 Scenario.node[30].udp packetReceived:vector(packetBytes) ETV
attr interpolationmode none
attr source packetReceived
attr title "packets received, vector(packetBytes)"
vector 386 Scenario.node[30].udp passedUpPk:vector(count) ETV
attr interpolationmode none
attr source packetSentToUpper
attr title "packets passed up, vector(count)"
vector 387 Scenario.node[30].app[0] packetReceived:vector(packetBytes) ETV
attr interpolationmode none
attr source packetReceived
attr title "packets received, vector(packetBytes)"
vector 388 Scenario.node[30].app[0] throughput:vector ETV
attr source throughput(packetReceived)
attr title "throughput, vector"
attr unit bps
vector 389 Scenario.node[30].app[0] rcvdPkLifetime:vector ETV
attr interpolationmode none
attr source dataAge(packetReceived)
attr title "received packet lifetime, vector"
attr unit s
vector 390 Scenario.node[26].wlan[0].mac packetReceivedFromLower:vector(packetBytes) ETV
attr interpolationmode none
attr title "packets received from lower layer, vector(packetBytes)"
vector 391 Scenario.node[26].wlan[0].mac.dcf packetReceivedFromPeer:vector(packetBytes) ETV
attr interpolationmode none
attr title "packets received, vector(packetBytes)"
vector 392 Scenario.node[26].wlan[0].mac.dcf packetReceivedFromPeerMulticast:vector(packetBytes) ETV
attr interpolationmode none
attr source ieee80211Multicast(packetReceivedFromPeer)
attr title "packets received: multicast, vector(packetBytes)"
vector 393 Scenario.node[26].wlan[0].mac.dcf packetReceivedFromPeerWithoutRetry:vector(packetBytes) ETV
attr interpolationmode none
attr source ieee80211NotRetry(packetReceivedFromPeer)
attr title "packets received: without retry, vector(packetBytes)"
vector 394 Scenario.node[26].wlan[0].mac packetSentToUpper:vector(packetBytes) ETV
attr interpolationmode none
attr title "packets sent to upper layer, vector(packetBytes)"
vector 395 Scenario.node[26].udp packetReceived:vector(packetBytes) ETV
attr interpolationmode none
attr source packetReceived
attr title "packets received, vector(packetBytes)"
vector 396 Scenario.node[26].udp passedUpPk:vector(count) ETV
attr interpolationmode none
attr source packetSentToUpper
attr title "packets passed up, vector(count)"
vector 397 Scenario.node[26].app[0] packetReceived:vector(packetBytes) ETV
attr interpolationmode none
attr source packetReceived
attr title "packets received, vector(packetBytes)"
vector 398 Scenario.node[26].app[0] throughput:vector ETV
attr source throughput(packetReceived)
attr title "throughput, vector"
attr unit bps
vector 399 Scenario.node[26].app[0] rcvdPkLifetime:vector ETV
attr interpolationmode none
attr source dataAge(packetReceived)
attr title "received packet lifetime, vector"
attr unit s
vector 400 Scenario.node[21].wlan[0].mac packetReceivedFromLower:vector(packetBytes) ETV
attr interpolationmode none
attr title "packets received from lower layer, vector(packetBytes)"
vector 401 Scenario.node[21].wlan[0].mac.dcf packetReceivedFromPeer:vector(packetBytes) ETV
attr interpolationmode none
attr title "packets received, vector(packetBytes)"
vector 402 Scenario.node[21].wlan[0].mac.dcf packetReceivedFromPeerMulticast:vector(packetBytes) ETV
attr interpolationmode none
attr source ieee80211Multicast(packetReceivedFromPeer)
attr title "packets received: multicast, vector(packetBytes)"
vector 403 Scenario.node[21].wlan[0].mac.dcf packetReceivedFromPeerWithoutRetry:vector(packetBytes) ETV
attr interpolationmode none
attr source ieee80211NotRetry(packetReceivedFromPeer)
attr title "packets received: without retry, vector(packetBytes)"
vector 404 Scenario.node[21].wlan[0].mac packetSentToUpper:vector(packetBytes) ETV
attr interpolationmode none
attr title "packets sent to upper layer, vector(packetBytes)"
vector 405 Scenario.node[21].udp packetReceived:vector(packetBytes) ETV
attr interpolationmode none
attr source packetReceived
attr title "packets received, vector(packetBytes)"
vector 406 Scenario.node[21].udp passedUpPk:vector(count) ETV
attr interpolationmode none
attr source packetSentToUpper
attr title "packets passed up, vector(count)"
vector 407 Scenario.node[21].app[0] packetReceived:vector(packetBytes) ETV
attr interpolationmode none
attr source packetReceived
attr title "packets received, vector(packetBytes)"
vector 408 Scenario.node[21].app[0] throughput:vector ETV
attr source throughput(packetReceived)
attr title "throughput, vector"
attr unit bps
vector 409 Scenario.node[21].app[0] rcvdPkLifetime:vector ETV
attr interpolationmode none
attr source dataAge(packetReceived)
attr title "received packet lifetime, vector"
attr unit s
45	87	5.00015256926	158
45	299	15.000152706592	158
45	596	25.000152874619	158
45	880	35.000152627668	158
49	87	5.00015256926	130
49	299	15.000152706592	130
49	596	25.000152874619	130
49	880	35.000152627668	130
48	87	5.00015256926	158
[...]
418	1180	38.9	0
418	1180	39	0
418	1180	39.1	0
418	1180	39.2	0
418	1180	39.3	0
418	1180	39.4	0
418	1180	39.5	0
418	1180	39.6	0
418	1180	39.7	0
418	1180	39.8	0
418	1180	39.9	0
418	1180	40	0
418	1180	40.1	0
418	1180	40.2	0
418	1180	40.3	0
418	1180	40.4	0
418	1180	40.5	0
418	1180	40.6	0
418	1180	40.7	0
418	1180	40.8	0
418	1180	40.9	0
418	1180	41	0
418	1180	41.1	0
418	1180	41.2	0
418	1180	41.3	0
418	1180	41.4	0
418	1180	41.5	0
418	1180	41.6	0
418	1180	41.7	0
418	1180	41.8	0
418	1180	41.9	0
418	1180	42	0
418	1180	42.1	0
418	1180	42.2	0
418	1180	42.3	0
418	1180	42.4	0
418	1180	42.5	0
418	1180	42.6	0
418	1180	42.7	0
418	1180	42.8	0
418	1180	42.9	0
418	1180	43	0
418	1180	43.1	0
418	1180	43.2	0
418	1180	43.3	0
418	1180	43.4	0
418	1180	43.5	0
418	1180	43.6	0
418	1180	43.7	0
418	1180	43.8	0
418	1180	43.9	0
418	1180	44	0
418	1180	44.1	0
418	1180	44.2	0
418	1180	44.3	0
418	1180	44.4	0
418	1180	44.5	0
418	1180	44.6	0
418	1180	44.7	0
418	1180	44.8	0
418	1180	44.9	0
418	1180	45	0
418	1419	45.1	8000
418	1419	45.2	0
418	1419	45.3	0
418	1419	45.4	0
418	1419	45.5	0
418	1419	45.6	0
418	1419	45.7	0
418	1419	45.8	0
418	1419	45.9	0
418	1419	46	0
418	1419	46.1	0
418	1419	46.2	0
418	1419	46.3	0
418	1419	46.4	0
418	1419	46.5	0
418	1419	46.6	0
418	1419	46.7	0
418	1419	46.8	0
418	1419	46.9	0
418	1419	47	0
418	1419	47.1	0
418	1419	47.2	0
418	1419	47.3	0
418	1419	47.4	0
418	1419	47.5	0
418	1419	47.6	0
418	1419	47.7	0
418	1419	47.8	0
418	1419	47.9	0
418	1419	48	0
418	1419	48.1	0
418	1419	48.2	0
418	1419	48.3	0
418	1419	48.4	0
418	1419	48.5	0
418	1419	48.6	0
418	1419	48.7	0
418	1419	48.8	0
418	1419	48.9	0
418	1419	49	0
418	1419	49.1	0
418	1419	49.2	0
418	1419	49.3	0
418	1419	49.4	0
418	1419	49.5	0
418	1419	49.6	0
418	1419	49.7	0
418	1419	49.8	0
418	1419	49.9	0
418	1419	50	0
418	1419	50.1	0
418	1419	50.2	0
418	1419	50.3	0
418	1419	50.4	0
418	1419	50.5	0
418	1419	50.6	0
418	1419	50.7	0
418	1419	50.8	0
418	1419	50.9	0
418	1419	51	0
418	1419	51.1	0
418	1419	51.2	0
418	1419	51.3	0
418	1419	51.4	0
418	1419	51.5	0
418	1419	51.6	0
418	1419	51.7	0
418	1419	51.8	0
418	1419	51.9	0
418	1419	52	0
418	1419	52.1	0
418	1419	52.2	0
418	1419	52.3	0
418	1419	52.4	0
418	1419	52.5	0
418	1419	52.6	0
418	1419	52.7	0
418	1419	52.8	0
418	1419	52.9	0
418	1419	53	0
418	1419	53.1	0
418	1419	53.2	0
418	1419	53.3	0
418	1419	53.4	0
418	1419	53.5	0
418	1419	53.6	0
418	1419	53.7	0
418	1419	53.8	0
418	1419	53.9	0
418	1419	54	0
418	1419	54.1	0
418	1419	54.2	0
418	1419	54.3	0
418	1419	54.4	0
418	1419	54.5	0
418	1419	54.6	0
418	1419	54.7	0
418	1419	54.8	0
418	1419	54.9	0
418	1419	55	0
418	1660	55.1	8000
418	1660	55.2	0
418	1660	55.3	0
418	1660	55.4	0
418	1660	55.5	0
418	1660	55.6	0
418	1660	55.7	0
418	1660	55.8	0
418	1660	55.9	0
418	1660	56	0
418	1660	56.1	0
418	1660	56.2	0
418	1660	56.3	0
418	1660	56.4	0
418	1660	56.5	0
418	1660	56.6	0
418	1660	56.7	0
418	1660	56.8	0
418	1660	56.9	0
418	1660	57	0
418	1660	57.1	0
418	1660	57.2	0
418	1660	57.3	0
418	1660	57.4	0
418	1660	57.5	0
418	1660	57.6	0
418	1660	57.7	0
418	1660	57.8	0
418	1660	57.9	0
418	1660	58	0
418	1660	58.1	0
418	1660	58.2	0
418	1660	58.3	0
418	1660	58.4	0
418	1660	58.5	0
418	1660	58.6	0
418	1660	58.7	0
418	1660	58.8	0
418	1660	58.9	0
418	1660	59	0
418	1660	59.1	0
418	1660	59.2	0
418	1660	59.3	0
418	1660	59.4	0
418	1660	59.5	0
418	1660	59.6	0
418	1660	59.7	0
418	1660	59.8	0
418	1660	59.9	0
418	1660	60	0
418	1660	60.1	0
418	1660	60.2	0
418	1660	60.3	0
418	1660	60.4	0
418	1660	60.5	0
418	1660	60.6	0
418	1660	60.7	0
418	1660	60.8	0
418	1660	60.9	0
418	1660	61	0
418	1660	61.1	0
418	1660	61.2	0
418	1660	61.3	0
418	1660	61.4	0
418	1660	61.5	0
418	1660	61.6	0
418	1660	61.7	0
418	1660	61.8	0
418	1660	61.9	0
418	1660	62	0
418	1660	62.1	0
418	1660	62.2	0
418	1660	62.3	0
418	1660	62.4	0
418	1660	62.5	0
418	1660	62.6	0
418	1660	62.7	0
418	1660	62.8	0
418	1660	62.9	0
418	1660	63	0
418	1660	63.1	0
418	1660	63.2	0
418	1660	63.3	0
418	1660	63.4	0
418	1660	63.5	0
418	1660	63.6	0
418	1660	63.7	0
418	1660	63.8	0
418	1660	63.9	0
418	1660	64	0
418	1660	64.1	0
418	1660	64.2	0
418	1660	64.3	0
418	1660	64.4	0
418	1660	64.5	0
418	1660	64.6	0
418	1660	64.7	0
418	1660	64.8	0
418	1660	64.9	0
418	1660	65	0
418	1845	65.1	8000
418	1845	65.2	0
418	1845	65.3	0
418	1845	65.4	0
418	1845	65.5	0
418	1845	65.6	0
418	1845	65.7	0
418	1845	65.8	0
418	1845	65.9	0
418	1845	66	0
418	1845	66.1	0
418	1845	66.2	0
418	1845	66.3	0
418	1845	66.4	0
418	1845	66.5	0
418	1845	66.6	0
418	1845	66.7	0
418	1845	66.8	0
418	1845	66.9	0
418	1845	67	0
418	1845	67.1	0
418	1845	67.2	0
418	1845	67.3	0
418	1845	67.4	0
418	1845	67.5	0
418	1845	67.6	0
418	1845	67.7	0
418	1845	67.8	0
418	1845	67.9	0
418	1845	68	0
418	1845	68.1	0
418	1845	68.2	0
418	1845	68.3	0
418	1845	68.4	0
418	1845	68.5	0
418	1845	68.6	0
418	1845	68.7	0
418	1845	68.8	0
418	1845	68.9	0
418	1845	69	0
418	1845	69.1	0
418	1845	69.2	0
418	1845	69.3	0
418	1845	69.4	0
418	1845	69.5	0
418	1845	69.6	0
418	1845	69.7	0
418	1845	69.8	0
418	1845	69.9	0
418	1845	70	0
418	1845	70.1	0
418	1845	70.2	0
418	1845	70.3	0
418	1845	70.4	0
418	1845	70.5	0
418	1845	70.6	0
418	1845	70.7	0
418	1845	70.8	0
418	1845	70.9	0
418	1845	71	0
418	1845	71.1	0
418	1845	71.2	0
418	1845	71.3	0
418	1845	71.4	0
418	1845	71.5	0
418	1845	71.6	0
418	1845	71.7	0
418	1845	71.8	0
418	1845	71.9	0
418	1845	72	0
418	1845	72.1	0
418	1845	72.2	0
418	1845	72.3	0
418	1845	72.4	0
418	1845	72.5	0
418	1845	72.6	0
418	1845	72.7	0
418	1845	72.8	0
418	1845	72.9	0
418	1845	73	0
418	1845	73.1	0
418	1845	73.2	0
418	1845	73.3	0
418	1845	73.4	0
418	1845	73.5	0
418	1845	73.6	0
418	1845	73.7	0
418	1845	73.8	0
418	1845	73.9	0
418	1845	74	0
418	1845	74.1	0
418	1845	74.2	0
418	1845	74.3	0
418	1845	74.4	0
418	1845	74.5	0
418	1845	74.6	0
418	1845	74.7	0
418	1845	74.8	0
418	1845	74.9	0
418	1845	75	0
418	1845	75.1	0
418	1845	75.2	0
418	1845	75.3	0
418	1845	75.4	0
418	1845	75.5	0
418	1845	75.6	0
418	1845	75.7	0
418	1845	75.8	0
418	1845	75.9	0
418	1845	76	0
418	1845	76.1	0
418	1845	76.2	0
418	1845	76.3	0
418	1845	76.4	0
418	1845	76.5	0
418	1845	76.6	0
418	1845	76.7	0
418	1845	76.8	0
418	1845	76.9	0
418	1845	77	0
418	1845	77.1	0
418	1845	77.2	0
418	1845	77.3	0
418	1845	77.4	0
418	1845	77.5	0
418	1845	77.6	0
418	1845	77.7	0
418	1845	77.8	0
418	1845	77.9	0
418	1845	78	0
418	1845	78.1	0
418	1845	78.2	0
418	1845	78.3	0
418	1845	78.4	0
418	1845	78.5	0
418	1845	78.6	0
418	1845	78.7	0
418	1845	78.8	0
418	1845	78.9	0
418	1845	79	0
418	1845	79.1	0
418	1845	79.2	0
418	1845	79.3	0
418	1845	79.4	0
418	1845	79.5	0
418	1845	79.6	0
418	1845	79.7	0
418	1845	79.8	0
418	1845	79.9	0
418	1845	80	0
419	1180	45.000152840602	0.000152840602
419	1419	55.000152775233	0.000152775233
419	1660	65.0001526595	0.0001526595
420	1188	45.000152904535	158
420	1421	55.00015280921	158
420	1650	65.000152623876	158
421	1188	45.000152904535	158
421	1421	55.00015280921	158
421	1650	65.000152623876	158
422	1188	45.000152904535	158
422	1421	55.00015280921	158
422	1650	65.000152623876	158
423	1188	45.000152904535	158
423	1421	55.00015280921	158
423	1650	65.000152623876	158
424	1188	45.000152904535	130
424	1421	55.00015280921	130
424	1650	65.000152623876	130
425	1191	45.000152904535	108
425	1424	55.00015280921	108
425	1653	65.000152623876	108
426	1191	45.000152904535	1
426	1424	55.00015280921	2
426	1653	65.000152623876	3
427	1192	45.000152904535	100
427	1425	55.00015280921	100
427	1654	65.000152623876	100
428	1192	0.1	0
428	1192	0.2	0
428	1192	0.3	0
428	1192	0.4	0
428	1192	0.5	0
428	1192	0.6	0
428	1192	0.7	0
428	1192	0.8	0
428	1192	0.9	0
428	1192	1	0
428	1192	1.1	0
428	1192	1.2	0
428	1192	1.3	0
428	1192	1.4	0
428	1192	1.5	0
428	1192	1.6	0
428	1192	1.7	0
428	1192	1.8	0
428	1192	1.9	0
428	1192	2	0
428	1192	2.1	0
428	1192	2.2	0
428	1192	2.3	0
428	1192	2.4	0
428	1192	2.5	0
428	1192	2.6	0
428	1192	2.7	0
428	1192	2.8	0
428	1192	2.9	0
428	1192	3	0
428	1192	3.1	0
428	1192	3.2	0
428	1192	3.3	0
428	1192	3.4	0
428	1192	3.5	0
428	1192	3.6	0
428	1192	3.7	0
428	1192	3.8	0
428	1192	3.9	0
428	1192	4	0
428	1192	4.1	0
428	1192	4.2	0
428	1192	4.3	0
428	1192	4.4	0
428	1192	4.5	0
428	1192	4.6	0
428	1192	4.7	0
428	1192	4.8	0
428	1192	4.9	0
428	1192	5	0
428	1192	5.1	0
428	1192	5.2	0
428	1192	5.3	0
428	1192	5.4	0
428	1192	5.5	0
428	1192	5.6	0
428	1192	5.7	0
428	1192	5.8	0
428	1192	5.9	0
428	1192	6	0
428	1192	6.1	0
428	1192	6.2	0
428	1192	6.3	0
428	1192	6.4	0
428	1192	6.5	0
428	1192	6.6	0
428	1192	6.7	0
428	1192	6.8	0
428	1192	6.9	0
428	1192	7	0
428	1192	7.1	0
428	1192	7.2	0
428	1192	7.3	0
428	1192	7.4	0
428	1192	7.5	0
428	1192	7.6	0
428	1192	7.7	0
428	1192	7.8	0
428	1192	7.9	0
428	1192	8	0
428	1192	8.1	0
428	1192	8.2	0
428	1192	8.3	0
428	1192	8.4	0
428	1192	8.5	0
428	1192	8.6	0
428	1192	8.7	0
428	1192	8.8	0
428	1192	8.9	0
428	1192	9	0
428	1192	9.1	0
428	1192	9.2	0
428	1192	9.3	0
428	1192	9.4	0
428	1192	9.5	0
428	1192	9.6	0
428	1192	9.7	0
428	1192	9.8	0
428	1192	9.9	0
428	1192	10	0
428	1192	10.1	0
428	1192	10.2	0
428	1192	10.3	0
428	1192	10.4	0
428	1192	10.5	0
428	1192	10.6	0
428	1192	10.7	0
428	1192	10.8	0
428	1192	10.9	0
428	1192	11	0
428	1192	11.1	0
428	1192	11.2	0
428	1192	11.3	0
428	1192	11.4	0
428	1192	11.5	0
428	1192	11.6	0
428	1192	11.7	0
428	1192	11.8	0
428	1192	11.9	0
428	1192	12	0
428	1192	12.1	0
428	1192	12.2	0
428	1192	12.3	0
428	1192	12.4	0
428	1192	12.5	0
428	1192	12.6	0
428	1192	12.7	0
428	1192	12.8	0
428	1192	12.9	0
428	1192	13	0
428	1192	13.1	0
428	1192	13.2	0
428	1192	13.3	0
428	1192	13.4	0
428	1192	13.5	0
428	1192	13.6	0
428	1192	13.7	0
428	1192	13.8	0
428	1192	13.9	0
428	1192	14	0
428	1192	14.1	0
428	1192	14.2	0
428	1192	14.3	0
428	1192	14.4	0
428	1192	14.5	0
428	1192	14.6	0
428	1192	14.7	0
428	1192	14.8	0
428	1192	14.9	0
428	1192	15	0
428	1192	15.1	0
428	1192	15.2	0
428	1192	15.3	0
428	1192	15.4	0
428	1192	15.5	0
428	1192	15.6	0
428	1192	15.7	0
428	1192	15.8	0
428	1192	15.9	0
428	1192	16	0
428	1192	16.1	0
428	1192	16.2	0
428	1192	16.3	0
428	1192	16.4	0
428	1192	16.5	0
428	1192	16.6	0
428	1192	16.7	0
428	1192	16.8	0
428	1192	16.9	0
428	1192	17	0
428	1192	17.1	0
428	1192	17.2	0
428	1192	17.3	0
428	1192	17.4	0
428	1192	17.5	0
428	1192	17.6	0
428	1192	17.7	0
428	1192	17.8	0
428	1192	17.9	0
428	1192	18	0
428	1192	18.1	0
428	1192	18.2	0
428	1192	18.3	0
428	1192	18.4	0
428	1192	18.5	0
428	1192	18.6	0
428	1192	18.7	0
428	1192	18.8	0
428	1192	18.9	0
428	1192	19	0
428	1192	19.1	0
428	1192	19.2	0
428	1192	19.3	0
428	1192	19.4	0
428	1192	19.5	0
428	1192	19.6	0
428	1192	19.7	0
428	1192	19.8	0
428	1192	19.9	0
428	1192	20	0
428	1192	20.1	0
428	1192	20.2	0
428	1192	20.3	0
428	1192	20.4	0
428	1192	20.5	0
428	1192	20.6	0
428	1192	20.7	0
428	1192	20.8	0
428	1192	20.9	0
428	1192	21	0
428	1192	21.1	0
428	1192	21.2	0
428	1192	21.3	0
428	1192	21.4	0
428	1192	21.5	0
428	1192	21.6	0
428	1192	21.7	0
428	1192	21.8	0
428	1192	21.9	0
428	1192	22	0
428	1192	22.1	0
428	1192	22.2	0
428	1192	22.3	0
428	1192	22.4	0
428	1192	22.5	0
428	1192	22.6	0
428	1192	22.7	0
428	1192	22.8	0
428	1192	22.9	0
428	1192	23	0
428	1192	23.1	0
428	1192	23.2	0
428	1192	23.3	0
428	1192	23.4	0
428	1192	23.5	0
428	1192	23.6	0
428	1192	23.7	0
428	1192	23.8	0
428	1192	23.9	0
428	1192	24	0
428	1192	24.1	0
428	1192	24.2	0
428	1192	24.3	0
428	1192	24.4	0
428	1192	24.5	0
428	1192	24.6	0
428	1192	24.7	0
428	1192	24.8	0
428	1192	24.9	0
428	1192	25	0
428	1192	25.1	0
428	1192	25.2	0
428	1192	25.3	0
428	1192	25.4	0
428	1192	25.5	0
428	1192	25.6	0
428	1192	25.7	0
428	1192	25.8	0
428	1192	25.9	0
428	1192	26	0
428	1192	26.1	0
428	1192	26.2	0
428	1192	26.3	0
428	1192	26.4	0
428	1192	26.5	0
428	1192	26.6	0
428	1192	26.7	0
428	1192	26.8	0
428	1192	26.9	0
428	1192	27	0
428	1192	27.1	0
428	1192	27.2	0
428	1192	27.3	0
428	1192	27.4	0
428	1192	27.5	0
428	1192	27.6	0
428	1192	27.7	0
428	1192	27.8	0
428	1192	27.9	0
428	1192	28	0
428	1192	28.1	0
428	1192	28.2	0
428	1192	28.3	0
428	1192	28.4	0
428	1192	28.5	0
428	1192	28.6	0
428	1192	28.7	0
428	1192	28.8	0
428	1192	28.9	0
428	1192	29	0
428	1192	29.1	0
428	1192	29.2	0
428	1192	29.3	0
428	1192	29.4	0
428	1192	29.5	0
428	1192	29.6	0
428	1192	29.7	0
428	1192	29.8	0
428	1192	29.9	0
428	1192	30	0
428	1192	30.1	0
428	1192	30.2	0
428	1192	30.3	0
428	1192	30.4	0
428	1192	30.5	0
428	1192	30.6	0
428	1192	30.7	0
428	1192	30.8	0
428	1192	30.9	0
428	1192	31	0
428	1192	31.1	0
428	1192	31.2	0
428	1192	31.3	0
428	1192	31.4	0
428	1192	31.5	0
428	1192	31.6	0
428	1192	31.7	0
428	1192	31.8	0
428	1192	31.9	0
428	1192	32	0
428	1192	32.1	0
428	1192	32.2	0
428	1192	32.3	0
428	1192	32.4	0
428	1192	32.5	0
428	1192	32.6	0
428	1192	32.7	0
428	1192	32.8	0
428	1192	32.9	0
428	1192	33	0
428	1192	33.1	0
428	1192	33.2	0
428	1192	33.3	0
428	1192	33.4	0
428	1192	33.5	0
428	1192	33.6	0
428	1192	33.7	0
428	1192	33.8	0
428	1192	33.9	0
428	1192	34	0
428	1192	34.1	0
428	1192	34.2	0
428	1192	34.3	0
428	1192	34.4	0
428	1192	34.5	0
428	1192	34.6	0
428	1192	34.7	0
428	1192	34.8	0
428	1192	34.9	0
428	1192	35	0
428	1192	35.1	0
428	1192	35.2	0
428	1192	35.3	0
428	1192	35.4	0
428	1192	35.5	0
428	1192	35.6	0
428	1192	35.7	0
428	1192	35.8	0
428	1192	35.9	0
428	1192	36	0
428	1192	36.1	0
428	1192	36.2	0
428	1192	36.3	0
428	1192	36.4	0
428	1192	36.5	0
428	1192	36.6	0
428	1192	36.7	0
428	1192	36.8	0
428	1192	36.9	0
428	1192	37	0
428	1192	37.1	0
428	1192	37.2	0
428	1192	37.3	0
428	1192	37.4	0
428	1192	37.5	0
428	1192	37.6	0
428	1192	37.7	0
428	1192	37.8	0
428	1192	37.9	0
428	1192	38	0
428	1192	38.1	0
428	1192	38.2	0
428	1192	38.3	0
428	1192	38.4	0
428	1192	38.5	0
428	1192	38.6	0
428	1192	38.7	0
428	1192	38.8	0
428	1192	38.9	0
428	1192	39	0
428	1192	39.1	0
428	1192	39.2	0
428	1192	39.3	0
428	1192	39.4	0
428	1192	39.5	0
428	1192	39.6	0
428	1192	39.7	0
428	1192	39.8	0
428	1192	39.9	0
428	1192	40	0
428	1192	40.1	0
428	1192	40.2	0
428	1192	40.3	0
428	1192	40.4	0
428	1192	40.5	0
428	1192	40.6	0
428	1192	40.7	0
428	1192	40.8	0
428	1192	40.9	0
428	1192	41	0
428	1192	41.1	0
428	1192	41.2	0
428	1192	41.3	0
428	1192	41.4	0
428	1192	41.5	0
428	1192	41.6	0
428	1192	41.7	0
428	1192	41.8	0
428	1192	41.9	0
428	1192	42	0
428	1192	42.1	0
428	1192	42.2	0
428	1192	42.3	0
428	1192	42.4	0
428	1192	42.5	0
428	1192	42.6	0
428	1192	42.7	0
428	1192	42.8	0
428	1192	42.9	0
428	1192	43	0
428	1192	43.1	0
428	1192	43.2	0
428	1192	43.3	0
428	1192	43.4	0
428	1192	43.5	0
428	1192	43.6	0
428	1192	43.7	0
428	1192	43.8	0
428	1192	43.9	0
428	1192	44	0
428	1192	44.1	0
428	1192	44.2	0
428	1192	44.3	0
428	1192	44.4	0
428	1192	44.5	0
428	1192	44.6	0
428	1192	44.7	0
428	1192	44.8	0
428	1192	44.9	0
428	1192	45	0
428	1425	45.1	8000
428	1425	45.2	0
428	1425	45.3	0
428	1425	45.4	0
428	1425	45.5	0
428	1425	45.6	0
428	1425	45.7	0
428	1425	45.8	0
428	1425	45.9	0
428	1425	46	0
428	1425	46.1	0
428	1425	46.2	0
428	1425	46.3	0
428	1425	46.4	0
428	1425	46.5	0
428	1425	46.6	0
428	1425	46.7	0
428	1425	46.8	0
428	1425	46.9	0
428	1425	47	0
428	1425	47.1	0
428	1425	47.2	0
428	1425	47.3	0
428	1425	47.4	0
428	1425	47.5	0
428	1425	47.6	0
428	1425	47.7	0
428	1425	47.8	0
428	1425	47.9	0
428	1425	48	0
428	1425	48.1	0
428	1425	48.2	0
428	1425	48.3	0
428	1425	48.4	0
428	1425	48.5	0
428	1425	48.6	0
428	1425	48.7	0
428	1425	48.8	0
428	1425	48.9	0
428	1425	49	0
428	1425	49.1	0
428	1425	49.2	0
428	1425	49.3	0
428	1425	49.4	0
428	1425	49.5	0
428	1425	49.6	0
428	1425	49.7	0
428	1425	49.8	0
428	1425	49.9	0
428	1425	50	0
428	1425	50.1	0
428	1425	50.2	0
428	1425	50.3	0
428	1425	50.4	0
428	1425	50.5	0
428	1425	50.6	0
428	1425	50.7	0
428	1425	50.8	0
428	1425	50.9	0
428	1425	51	0
428	1425	51.1	0
428	1425	51.2	0
428	1425	51.3	0
428	1425	51.4	0
428	1425	51.5	0
428	1425	51.6	0
428	1425	51.7	0
428	1425	51.8	0
428	1425	51.9	0
428	1425	52	0
428	1425	52.1	0
428	1425	52.2	0
428	1425	52.3	0
428	1425	52.4	0
428	1425	52.5	0
428	1425	52.6	0
428	1425	52.7	0
428	1425	52.8	0
428	1425	52.9	0
428	1425	53	0
428	1425	53.1	0
428	1425	53.2	0
428	1425	53.3	0
428	1425	53.4	0
428	1425	53.5	0
428	1425	53.6	0
428	1425	53.7	0
428	1425	53.8	0
428	1425	53.9	0
428	1425	54	0
428	1425	54.1	0
428	1425	54.2	0
428	1425	54.3	0
428	1425	54.4	0
428	1425	54.5	0
428	1425	54.6	0
428	1425	54.7	0
428	1425	54.8	0
428	1425	54.9	0
428	1425	55	0
428	1654	55.1	8000
428	1654	55.2	0
428	1654	55.3	0
428	1654	55.4	0
428	1654	55.5	0
428	1654	55.6	0
428	1654	55.7	0
428	1654	55.8	0
428	1654	55.9	0
428	1654	56	0
428	1654	56.1	0
428	1654	56.2	0
428	1654	56.3	0
428	1654	56.4	0
428	1654	56.5	0
428	1654	56.6	0
428	1654	56.7	0
428	1654	56.8	0
428	1654	56.9	0
428	1654	57	0
428	1654	57.1	0
428	1654	57.2	0
428	1654	57.3	0
428	1654	57.4	0
428	1654	57.5	0
428	1654	57.6	0
428	1654	57.7	0
428	1654	57.8	0
428	1654	57.9	0
428	1654	58	0
428	1654	58.1	0
428	1654	58.2	0
428	1654	58.3	0
428	1654	58.4	0
428	1654	58.5	0
428	1654	58.6	0
428	1654	58.7	0
428	1654	58.8	0
428	1654	58.9	0
428	1654	59	0
428	1654	59.1	0
428	1654	59.2	0
428	1654	59.3	0
428	1654	59.4	0
428	1654	59.5	0
428	1654	59.6	0
428	1654	59.7	0
428	1654	59.8	0
428	1654	59.9	0
428	1654	60	0
428	1654	60.1	0
428	1654	60.2	0
428	1654	60.3	0
428	1654	60.4	0
428	1654	60.5	0
428	1654	60.6	0
428	1654	60.7	0
428	1654	60.8	0
428	1654	60.9	0
428	1654	61	0
428	1654	61.1	0
428	1654	61.2	0
428	1654	61.3	0
428	1654	61.4	0
428	1654	61.5	0
428	1654	61.6	0
428	1654	61.7	0
428	1654	61.8	0
428	1654	61.9	0
428	1654	62	0
428	1654	62.1	0
428	1654	62.2	0
428	1654	62.3	0
428	1654	62.4	0
428	1654	62.5	0
428	1654	62.6	0
428	1654	62.7	0
428	1654	62.8	0
428	1654	62.9	0
428	1654	63	0
428	1654	63.1	0
428	1654	63.2	0
428	1654	63.3	0
428	1654	63.4	0
428	1654	63.5	0
428	1654	63.6	0
428	1654	63.7	0
428	1654	63.8	0
428	1654	63.9	0
428	1654	64	0
428	1654	64.1	0
428	1654	64.2	0
428	1654	64.3	0
428	1654	64.4	0
428	1654	64.5	0
428	1654	64.6	0
428	1654	64.7	0
428	1654	64.8	0
428	1654	64.9	0
428	1654	65	0
428	1845	65.1	8000
428	1845	65.2	0
428	1845	65.3	0
428	1845	65.4	0
428	1845	65.5	0
428	1845	65.6	0
428	1845	65.7	0
428	1845	65.8	0
428	1845	65.9	0
428	1845	66	0
428	1845	66.1	0
428	1845	66.2	0
428	1845	66.3	0
428	1845	66.4	0
428	1845	66.5	0
428	1845	66.6	0
428	1845	66.7	0
428	1845	66.8	0
428	1845	66.9	0
428	1845	67	0
428	1845	67.1	0
428	1845	67.2	0
428	1845	67.3	0
428	1845	67.4	0
428	1845	67.5	0
428	1845	67.6	0
428	1845	67.7	0
428	1845	67.8	0
428	1845	67.9	0
428	1845	68	0
428	1845	68.1	0
428	1845	68.2	0
428	1845	68.3	0
428	1845	68.4	0
428	1845	68.5	0
428	1845	68.6	0
428	1845	68.7	0
428	1845	68.8	0
428	1845	68.9	0
428	1845	69	0
428	1845	69.1	0
428	1845	69.2	0
428	1845	69.3	0
428	1845	69.4	0
428	1845	69.5	0
428	1845	69.6	0
428	1845	69.7	0
428	1845	69.8	0
428	1845	69.9	0
428	1845	70	0
428	1845	70.1	0
428	1845	70.2	0
428	1845	70.3	0
428	1845	70.4	0
428	1845	70.5	0
428	1845	70.6	0
428	1845	70.7	0
428	1845	70.8	0
428	1845	70.9	0
428	1845	71	0
428	1845	71.1	0
428	1845	71.2	0
428	1845	71.3	0
428	1845	71.4	0
428	1845	71.5	0
428	1845	71.6	0
428	1845	71.7	0
428	1845	71.8	0
428	1845	71.9	0
428	1845	72	0
428	1845	72.1	0
428	1845	72.2	0
428	1845	72.3	0
428	1845	72.4	0
428	1845	72.5	0
428	1845	72.6	0
428	1845	72.7	0
428	1845	72.8	0
428	1845	72.9	0
428	1845	73	0
428	1845	73.1	0
428	1845	73.2	0
428	1845	73.3	0
428	1845	73.4	0
428	1845	73.5	0
428	1845	73.6	0
428	1845	73.7	0
428	1845	73.8	0
428	1845	73.9	0
428	1845	74	0
428	1845	74.1	0
428	1845	74.2	0
428	1845	74.3	0
428	1845	74.4	0
428	1845	74.5	0
428	1845	74.6	0
428	1845	74.7	0
428	1845	74.8	0
428	1845	74.9	0
428	1845	75	0
428	1845	75.1	0
428	1845	75.2	0
428	1845	75.3	0
428	1845	75.4	0
428	1845	75.5	0
428	1845	75.6	0
428	1845	75.7	0
428	1845	75.8	0
428	1845	75.9	0
428	1845	76	0
428	1845	76.1	0
428	1845	76.2	0
428	1845	76.3	0
428	1845	76.4	0
428	1845	76.5	0
428	1845	76.6	0
428	1845	76.7	0
428	1845	76.8	0
428	1845	76.9	0
428	1845	77	0
428	1845	77.1	0
428	1845	77.2	0
428	1845	77.3	0
428	1845	77.4	0
428	1845	77.5	0
428	1845	77.6	0
428	1845	77.7	0
428	1845	77.8	0
428	1845	77.9	0
428	1845	78	0
428	1845	78.1	0
428	1845	78.2	0
428	1845	78.3	0
428	1845	78.4	0
428	1845	78.5	0
428	1845	78.6	0
428	1845	78.7	0
428	1845	78.8	0
428	1845	78.9	0
428	1845	79	0
428	1845	79.1	0
428	1845	79.2	0
428	1845	79.3	0
428	1845	79.4	0
428	1845	79.5	0
428	1845	79.6	0
428	1845	79.7	0
428	1845	79.8	0
428	1845	79.9	0
428	1845	80	0
429	1192	45.000152904535	0.000152904535
429	1425	55.00015280921	0.00015280921
429	1654	65.000152623876	0.000152623876

