version 2
run General-0-20240301-01:15:01-31352
attr configname General
attr datetime 20240301-01:15:01
attr experiment General
attr inifile omnetpp.ini
attr iterationvars ""
attr iterationvarsf ""
attr measurement ""
attr network Scenario
attr processid 31352
attr repetition 0
attr replication #0
attr resultdir results
attr runnumber 0
attr seedset 0
param *.node[*].numApps 1
param *.node[*].app[0].typename "\"vanetquevedo.veins_inet.VeinsInetSampleApplication\""
param *.node[*].app[0].interface "\"wlan0\""
param *.node[*].wlan[0].opMode "\"p\""
param *.node[*].wlan[0].radio.typename "\"Ieee80211DimensionalRadio\""
param *.node[*].wlan[0].radio.bandName "\"5.9 GHz\""
param *.node[*].wlan[0].radio.channelNumber 3
param *.node[*].wlan[0].radio.transmitter.power 20mW
param *.node[*].wlan[0].radio.bandwidth "10 MHz"
param *.node[*].wlan[*].radio.antenna.mobility.typename "\"AttachedMobility\""
param *.node[*].wlan[*].radio.antenna.mobility.mobilityModule "\"^.^.^.^.mobility\""
param *.node[*].wlan[*].radio.antenna.mobility.offsetX -2.5m
param *.node[*].wlan[*].radio.antenna.mobility.offsetZ 1.5m
param *.node[*].wlan[*].radio.antenna.mobility.constraintAreaMinX 0m
param *.node[*].wlan[*].radio.antenna.mobility.constraintAreaMaxX 0m
param *.node[*].wlan[*].radio.antenna.mobility.constraintAreaMinY 0m
param *.node[*].wlan[*].radio.antenna.mobility.constraintAreaMaxY 0m
param *.node[*].wlan[*].radio.antenna.mobility.constraintAreaMinZ 0m
param *.node[*].wlan[*].radio.antenna.mobility.constraintAreaMaxZ 0m
param *.node[*].ipv4.routingTableModule "\"inet.routing.aodv.AodvRouting\""
param *.node[*].ipv4.configurator.typename "\"HostAutoConfigurator\""
param *.node[*].ipv4.configurator.interfaces "\"wlan0\""
param *.node[*].ipv4.configurator.mcastGroups "\"224.0.0.1\""
param *.node[*].mobility.typename "\"VeinsInetMobility\""
param *.manager.updateInterval 0.1s
param *.manager.host "\"localhost\""
param *.manager.port 9999
param *.manager.autoShutdown true
param *.manager.launchConfig "xmldoc(\"centerquevedo.launchd.xml\")"
param *.manager.moduleType "\"vanetquevedo.veins_inet.VeinsInetCar\""

vector 0 Scenario.node[0].wlan[0].radio radioMode:vector ETV
attr interpolationmode sample-hold
attr source radioModeChanged
attr title "Radio mode, vector"
vector 1 Scenario.node[0].wlan[0].radio radioChannel:vector ETV
attr interpolationmode sample-hold
attr source radioChannelChanged
attr title "Radio channel, vector"
vector 2 Scenario.node[0].wlan[0].radio receptionState:vector ETV
attr interpolationmode sample-hold
attr source receptionStateChanged
attr title "Radio reception state, vector"
vector 3 Scenario.node[0].wlan[0].mac.dcf.recoveryProcedure contentionWindowChanged:vector ETV
attr interpolationmode sample-hold
attr title "contention window, vector"
vector 4 Scenario.node[1].wlan[0].radio radioMode:vector ETV
attr interpolationmode sample-hold
attr source radioModeChanged
attr title "Radio mode, vector"
vector 5 Scenario.node[1].wlan[0].radio radioChannel:vector ETV
attr interpolationmode sample-hold
attr source radioChannelChanged
attr title "Radio channel, vector"
vector 6 Scenario.node[1].wlan[0].radio receptionState:vector ETV
attr interpolationmode sample-hold
attr source receptionStateChanged
attr title "Radio reception state, vector"
vector 7 Scenario.node[1].wlan[0].mac.dcf.recoveryProcedure contentionWindowChanged:vector ETV
attr interpolationmode sample-hold
attr title "contention window, vector"
vector 8 Scenario.node[2].wlan[0].radio radioMode:vector ETV
attr interpolationmode sample-hold
attr source radioModeChanged
attr title "Radio mode, vector"
vector 9 Scenario.node[2].wlan[0].radio radioChannel:vector ETV
attr interpolationmode sample-hold
attr source radioChannelChanged
attr title "Radio channel, vector"
vector 10 Scenario.node[2].wlan[0].radio receptionState:vector ETV
attr interpolationmode sample-hold
attr source receptionStateChanged
attr title "Radio reception state, vector"
vector 11 Scenario.node[2].wlan[0].mac.dcf.recoveryProcedure contentionWindowChanged:vector ETV
attr interpolationmode sample-hold
attr title "contention window, vector"
vector 12 Scenario.node[3].wlan[0].radio radioMode:vector ETV
attr interpolationmode sample-hold
attr source radioModeChanged
attr title "Radio mode, vector"
vector 13 Scenario.node[3].wlan[0].radio radioChannel:vector ETV
attr interpolationmode sample-hold
attr source radioChannelChanged
attr title "Radio channel, vector"
vector 14 Scenario.node[3].wlan[0].radio receptionState:vector ETV
attr interpolationmode sample-hold
attr source receptionStateChanged
attr title "Radio reception state, vector"
vector 15 Scenario.node[3].wlan[0].mac.dcf.recoveryProcedure contentionWindowChanged:vector ETV
attr interpolationmode sample-hold
attr title "contention window, vector"
vector 16 Scenario.node[4].wlan[0].radio radioMode:vector ETV
attr interpolationmode sample-hold
attr source radioModeChanged
attr title "Radio mode, vector"
vector 17 Scenario.node[4].wlan[0].radio radioChannel:vector ETV
attr interpolationmode sample-hold
attr source radioChannelChanged
attr title "Radio channel, vector"
vector 18 Scenario.node[4].wlan[0].radio receptionState:vector ETV
attr interpolationmode sample-hold
attr source receptionStateChanged
attr title "Radio reception state, vector"
vector 19 Scenario.node[4].wlan[0].mac.dcf.recoveryProcedure contentionWindowChanged:vector ETV
attr interpolationmode sample-hold
attr title "contention window, vector"
vector 20 Scenario.node[0].app[0] packetSent:vector(packetBytes) ETV
attr interpolationmode none
attr source packetSent
attr title "packets sent, vector(packetBytes)"
vector 21 Scenario.node[0].udp packetSent:vector(packetBytes) ETV
attr interpolationmode none
attr source packetSent
attr title "packets sent, vector(packetBytes)"
vector 22 Scenario.node[0].lo[0].lo rcvdPkFromHl:vector(packetBytes) ETV
attr interpolationmode none
attr source packetReceivedFromUpper
attr title "packets received from higher layer, vector(packetBytes)"
vector 23 Scenario.node[0].lo[0].lo passedUpPk:vector(packetBytes) ETV
attr interpolationmode none
attr source packetSentToUpper
attr title "packets passed to higher layer, vector(packetBytes)"
vector 24 Scenario.node[0].wlan[0].mac packetReceivedFromUpper:vector(packetBytes) ETV
attr interpolationmode none
attr title "packets received from upper layer, vector(packetBytes)"
vector 25 Scenario.node[0].wlan[0].mac.dcf.channelAccess.pendingQueue packetPushed:vector(packetBytes) ETV
attr interpolationmode none
attr title "packet pushed, vector(packetBytes)"
vector 26 Scenario.node[0].wlan[0].mac.dcf.channelAccess.pendingQueue queueLength:vector ETV
attr interpolationmode sample-hold
attr source "count(packetPushed) - count(packetPopped) - count(packetRemoved) - count(packetDropped)"
attr title "queue length, vector"
vector 27 Scenario.node[0].wlan[0].mac.dcf.channelAccess.contention backoffPeriodGenerated:vector ETV
attr interpolationmode none
attr title "backoff periods, vector"
vector 28 Scenario.node[0].wlan[0].mac.dcf.channelAccess.contention backoffActive:vector ETV
attr interpolationmode sample-hold
attr source count(backoffStarted)-count(backoffStopped)
attr title "backoff active, vector"
vector 29 Scenario.node[0].udp packetReceived:vector(packetBytes) ETV
attr interpolationmode none
attr source packetReceived
attr title "packets received, vector(packetBytes)"
vector 30 Scenario.node[0].udp passedUpPk:vector(count) ETV
attr interpolationmode none
attr source packetSentToUpper
attr title "packets passed up, vector(count)"
vector 31 Scenario.node[0].app[0] packetReceived:vector(packetBytes) ETV
attr interpolationmode none
attr source packetReceived
attr title "packets received, vector(packetBytes)"
vector 32 Scenario.node[0].app[0] throughput:vector ETV
attr source throughput(packetReceived)
attr title "throughput, vector"
attr unit bps
vector 33 Scenario.node[0].app[0] rcvdPkLifetime:vector ETV
attr interpolationmode none
attr source dataAge(packetReceived)
attr title "received packet lifetime, vector"
attr unit s
vector 34 Scenario.node[0].wlan[0].mac.dcf.channelAccess.pendingQueue packetPopped:vector(packetBytes) ETV
attr interpolationmode none
attr title "packet popped, vector(packetBytes)"
vector 35 Scenario.node[0].wlan[0].mac.dcf.channelAccess.pendingQueue queueingTime:vector ETV
attr interpolationmode none
attr source queueingTime(packetPopped)
attr title "queueing times, vector"
attr unit s
vector 36 Scenario.node[0].wlan[0].mac.dcf.channelAccess.inProgressFrames queueLength:vector ETV
attr interpolationmode sample-hold
attr source "count(packetEnqueued) - count(packetDequeued)"
attr title "queue length, vector"
vector 37 Scenario.node[0].wlan[0].mac.dcf datarateSelected:vector ETV
attr interpolationmode none
attr title "datarates selected, vector"
vector 38 Scenario.node[0].wlan[0].mac packetSentToLower:vector(packetBytes) ETV
attr interpolationmode none
attr title "packets sent to lower layer, vector(packetBytes)"
vector 39 Scenario.node[0].wlan[0].mac.dcf frameSequenceActive:vector ETV
attr interpolationmode sample-hold
attr source count(frameSequenceStarted)-count(frameSequenceFinished)
attr title "frame sequence active, vector"
vector 40 Scenario.node[0].wlan[0].radio transmissionState:vector ETV
attr interpolationmode sample-hold
attr source transmissionStateChanged
attr title "Radio transmission state, vector"
vector 41 Scenario.node[0].wlan[0].mac.dcf packetSentToPeer:vector(packetBytes) ETV
attr interpolationmode none
attr title "packets sent, vector(packetBytes)"
vector 42 Scenario.node[0].wlan[0].mac.dcf packetSentToPeerMulticast:vector(packetBytes) ETV
attr interpolationmode none
attr source ieee80211Multicast(packetSentToPeer)
attr title "packets sent: multicast, vector(packetBytes)"
vector 43 Scenario.node[0].wlan[0].mac.dcf packetSentToPeerWithoutRetry:vector(packetBytes) ETV
attr interpolationmode none
attr source ieee80211NotRetry(packetSentToPeer)
attr title "packets sent: without retry, vector(packetBytes)"
vector 44 Scenario.node[0].wlan[0].mac.dcf.channelAccess.inProgressFrames queueingTime:vector ETV
attr interpolationmode none
attr source queueingTime(packetDequeued)
attr title "queueing times, vector"
vector 45 Scenario.node[1].wlan[0].mac packetReceivedFromLower:vector(packetBytes) ETV
attr interpolationmode none
attr title "packets received from lower layer, vector(packetBytes)"
vector 46 Scenario.node[1].wlan[0].mac.dcf packetReceivedFromPeer:vector(packetBytes) ETV
attr interpolationmode none
attr title "packets received, vector(packetBytes)"
vector 47 Scenario.node[1].wlan[0].mac.dcf packetReceivedFromPeerMulticast:vector(packetBytes) ETV
attr interpolationmode none
attr source ieee80211Multicast(packetReceivedFromPeer)
attr title "packets received: multicast, vector(packetBytes)"
vector 48 Scenario.node[1].wlan[0].mac.dcf packetReceivedFromPeerWithoutRetry:vector(packetBytes) ETV
attr interpolationmode none
attr source ieee80211NotRetry(packetReceivedFromPeer)
attr title "packets received: without retry, vector(packetBytes)"
vector 49 Scenario.node[1].wlan[0].mac packetSentToUpper:vector(packetBytes) ETV
attr interpolationmode none
attr title "packets sent to upper layer, vector(packetBytes)"
vector 50 Scenario.node[1].udp packetReceived:vector(packetBytes) ETV
attr interpolationmode none
attr source packetReceived
attr title "packets received, vector(packetBytes)"
vector 51 Scenario.node[1].udp passedUpPk:vector(count) ETV
attr interpolationmode none
attr source packetSentToUpper
attr title "packets passed up, vector(count)"
vector 52 Scenario.node[1].app[0] packetReceived:vector(packetBytes) ETV
attr interpolationmode none
attr source packetReceived
attr title "packets received, vector(packetBytes)"
vector 53 Scenario.node[1].app[0] throughput:vector ETV
attr source throughput(packetReceived)
attr title "throughput, vector"
attr unit bps
vector 54 Scenario.node[1].app[0] rcvdPkLifetime:vector ETV
attr interpolationmode none
attr source dataAge(packetReceived)
attr title "received packet lifetime, vector"
attr unit s
vector 55 Scenario.node[4].wlan[0].mac packetReceivedFromLower:vector(packetBytes) ETV
attr interpolationmode none
attr title "packets received from lower layer, vector(packetBytes)"
vector 56 Scenario.node[4].wlan[0].mac.dcf packetReceivedFromPeer:vector(packetBytes) ETV
attr interpolationmode none
attr title "packets received, vector(packetBytes)"
vector 57 Scenario.node[4].wlan[0].mac.dcf packetReceivedFromPeerMulticast:vector(packetBytes) ETV
attr interpolationmode none
attr source ieee80211Multicast(packetReceivedFromPeer)
attr title "packets received: multicast, vector(packetBytes)"
vector 58 Scenario.node[4].wlan[0].mac.dcf packetReceivedFromPeerWithoutRetry:vector(packetBytes) ETV
attr interpolationmode none
attr source ieee80211NotRetry(packetReceivedFromPeer)
attr title "packets received: without retry, vector(packetBytes)"
vector 59 Scenario.node[4].wlan[0].mac packetSentToUpper:vector(packetBytes) ETV
attr interpolationmode none
attr title "packets sent to upper layer, vector(packetBytes)"
vector 60 Scenario.node[4].udp packetReceived:vector(packetBytes) ETV
attr interpolationmode none
attr source packetReceived
attr title "packets received, vector(packetBytes)"
vector 61 Scenario.node[4].udp passedUpPk:vector(count) ETV
attr interpolationmode none
attr source packetSentToUpper
attr title "packets passed up, vector(count)"
vector 62 Scenario.node[4].app[0] packetReceived:vector(packetBytes) ETV
attr interpolationmode none
attr source packetReceived
attr title "packets received, vector(packetBytes)"
vector 63 Scenario.node[4].app[0] throughput:vector ETV
attr source throughput(packetReceived)
attr title "throughput, vector"
attr unit bps
vector 64 Scenario.node[4].app[0] rcvdPkLifetime:vector ETV
attr interpolationmode none
attr source dataAge(packetReceived)
attr title "received packet lifetime, vector"
attr unit s
vector 65 Scenario.node[2].wlan[0].mac packetReceivedFromLower:vector(packetBytes) ETV
attr interpolationmode none
attr title "packets received from lower layer, vector(packetBytes)"
vector 66 Scenario.node[2].wlan[0].mac.dcf packetReceivedFromPeer:vector(packetBytes) ETV
attr interpolationmode none
attr title "packets received, vector(packetBytes)"
vector 67 Scenario.node[2].wlan[0].mac.dcf packetReceivedFromPeerMulticast:vector(packetBytes) ETV
attr interpolationmode none
attr source ieee80211Multicast(packetReceivedFromPeer)
attr title "packets received: multicast, vector(packetBytes)"
vector 68 Scenario.node[2].wlan[0].mac.dcf packetReceivedFromPeerWithoutRetry:vector(packetBytes) ETV
attr interpolationmode none
attr source ieee80211NotRetry(packetReceivedFromPeer)
attr title "packets received: without retry, vector(packetBytes)"
vector 69 Scenario.node[2].wlan[0].mac packetSentToUpper:vector(packetBytes) ETV
attr interpolationmode none
attr title "packets sent to upper layer, vector(packetBytes)"
vector 70 Scenario.node[2].udp packetReceived:vector(packetBytes) ETV
attr interpolationmode none
attr source packetReceived
attr title "packets received, vector(packetBytes)"
vector 71 Scenario.node[2].udp passedUpPk:vector(count) ETV
attr interpolationmode none
attr source packetSentToUpper
attr title "packets passed up, vector(count)"
vector 72 Scenario.node[2].app[0] packetReceived:vector(packetBytes) ETV
attr interpolationmode none
attr source packetReceived
attr title "packets received, vector(packetBytes)"
vector 73 Scenario.node[2].app[0] throughput:vector ETV
attr source throughput(packetReceived)
attr title "throughput, vector"
attr unit bps
vector 74 Scenario.node[2].app[0] rcvdPkLifetime:vector ETV
attr interpolationmode none
attr source dataAge(packetReceived)
attr title "received packet lifetime, vector"
attr unit s
vector 75 Scenario.node[5].wlan[0].radio radioMode:vector ETV
attr interpolationmode sample-hold
attr source radioModeChanged
attr title "Radio mode, vector"
vector 76 Scenario.node[5].wlan[0].radio radioChannel:vector ETV
attr interpolationmode sample-hold
attr source radioChannelChanged
attr title "Radio channel, vector"
vector 77 Scenario.node[5].wlan[0].radio receptionState:vector ETV
attr interpolationmode sample-hold
attr source receptionStateChanged
attr title "Radio reception state, vector"
vector 78 Scenario.node[5].wlan[0].mac.dcf.recoveryProcedure contentionWindowChanged:vector ETV
attr interpolationmode sample-hold
attr title "contention window, vector"
vector 79 Scenario.node[6].wlan[0].radio radioMode:vector ETV
attr interpolationmode sample-hold
attr source radioModeChanged
attr title "Radio mode, vector"
vector 80 Scenario.node[6].wlan[0].radio radioChannel:vector ETV
attr interpolationmode sample-hold
attr source radioChannelChanged
attr title "Radio channel, vector"
vector 81 Scenario.node[6].wlan[0].radio receptionState:vector ETV
attr interpolationmode sample-hold
attr source receptionStateChanged
attr title "Radio reception state, vector"
vector 82 Scenario.node[6].wlan[0].mac.dcf.recoveryProcedure contentionWindowChanged:vector ETV
attr interpolationmode sample-hold
attr title "contention window, vector"
vector 83 Scenario.node[7].wlan[0].radio radioMode:vector ETV
attr interpolationmode sample-hold
attr source radioModeChanged
attr title "Radio mode, vector"
vector 84 Scenario.node[7].wlan[0].radio radioChannel:vector ETV
attr interpolationmode sample-hold
attr source radioChannelChanged
attr title "Radio channel, vector"
vector 85 Scenario.node[7].wlan[0].radio receptionState:vector ETV
attr interpolationmode sample-hold
attr source receptionStateChanged
attr title "Radio reception state, vector"
vector 86 Scenario.node[7].wlan[0].mac.dcf.recoveryProcedure contentionWindowChanged:vector ETV
attr interpolationmode sample-hold
attr title "contention window, vector"
vector 87 Scenario.node[8].wlan[0].radio radioMode:vector ETV
attr interpolationmode sample-hold
attr source radioModeChanged
attr title "Radio mode, vector"
vector 88 Scenario.node[8].wlan[0].radio radioChannel:vector ETV
attr interpolationmode sample-hold
attr source radioChannelChanged
attr title "Radio channel, vector"
vector 89 Scenario.node[8].wlan[0].radio receptionState:vector ETV
attr interpolationmode sample-hold
attr source receptionStateChanged
attr title "Radio reception state, vector"
vector 90 Scenario.node[8].wlan[0].mac.dcf.recoveryProcedure contentionWindowChanged:vector ETV
attr interpolationmode sample-hold
attr title "contention window, vector"
vector 91 Scenario.node[9].wlan[0].radio radioMode:vector ETV
attr interpolationmode sample-hold
attr source radioModeChanged
attr title "Radio mode, vector"
vector 92 Scenario.node[9].wlan[0].radio radioChannel:vector ETV
attr interpolationmode sample-hold
attr source radioChannelChanged
attr title "Radio channel, vector"
vector 93 Scenario.node[9].wlan[0].radio receptionState:vector ETV
attr interpolationmode sample-hold
attr source receptionStateChanged
attr title "Radio reception state, vector"
vector 94 Scenario.node[9].wlan[0].mac.dcf.recoveryProcedure contentionWindowChanged:vector ETV
attr interpolationmode sample-hold
attr title "contention window, vector"
vector 95 Scenario.node[10].wlan[0].radio radioMode:vector ETV
attr interpolationmode sample-hold
attr source radioModeChanged
attr title "Radio mode, vector"
vector 96 Scenario.node[10].wlan[0].radio radioChannel:vector ETV
attr interpolationmode sample-hold
attr source radioChannelChanged
attr title "Radio channel, vector"
vector 97 Scenario.node[10].wlan[0].radio receptionState:vector ETV
attr interpolationmode sample-hold
attr source receptionStateChanged
attr title "Radio reception state, vector"
vector 98 Scenario.node[10].wlan[0].mac.dcf.recoveryProcedure contentionWindowChanged:vector ETV
attr interpolationmode sample-hold
attr title "contention window, vector"
vector 99 Scenario.node[11].wlan[0].radio radioMode:vector ETV
attr interpolationmode sample-hold
attr source radioModeChanged
attr title "Radio mode, vector"
vector 100 Scenario.node[11].wlan[0].radio radioChannel:vector ETV
attr interpolationmode sample-hold
attr source radioChannelChanged
attr title "Radio channel, vector"
vector 101 Scenario.node[11].wlan[0].radio receptionState:vector ETV
attr interpolationmode sample-hold
attr source receptionStateChanged
attr title "Radio reception state, vector"
vector 102 Scenario.node[11].wlan[0].mac.dcf.recoveryProcedure contentionWindowChanged:vector ETV
attr interpolationmode sample-hold
attr title "contention window, vector"
vector 103 Scenario.node[12].wlan[0].radio radioMode:vector ETV
attr interpolationmode sample-hold
attr source radioModeChanged
attr title "Radio mode, vector"
vector 104 Scenario.node[12].wlan[0].radio radioChannel:vector ETV
attr interpolationmode sample-hold
attr source radioChannelChanged
attr title "Radio channel, vector"
vector 105 Scenario.node[12].wlan[0].radio receptionState:vector ETV
attr interpolationmode sample-hold
attr source receptionStateChanged
attr title "Radio reception state, vector"
vector 106 Scenario.node[12].wlan[0].mac.dcf.recoveryProcedure contentionWindowChanged:vector ETV
attr interpolationmode sample-hold
attr title "contention window, vector"
vector 107 Scenario.node[13].wlan[0].radio radioMode:vector ETV
attr interpolationmode sample-hold
attr source radioModeChanged
attr title "Radio mode, vector"
vector 108 Scenario.node[13].wlan[0].radio radioChannel:vector ETV
attr interpolationmode sample-hold
attr source radioChannelChanged
attr title "Radio channel, vector"
vector 109 Scenario.node[13].wlan[0].radio receptionState:vector ETV
attr interpolationmode sample-hold
attr source receptionStateChanged
attr title "Radio reception state, vector"
vector 110 Scenario.node[13].wlan[0].mac.dcf.recoveryProcedure contentionWindowChanged:vector ETV
attr interpolationmode sample-hold
attr title "contention window, vector"
vector 111 Scenario.node[7].wlan[0].mac packetReceivedFromLower:vector(packetBytes) ETV
attr interpolationmode none
attr title "packets received from lower layer, vector(packetBytes)"
vector 112 Scenario.node[7].wlan[0].mac.dcf packetReceivedFromPeer:vector(packetBytes) ETV
attr interpolationmode none
attr title "packets received, vector(packetBytes)"
vector 113 Scenario.node[7].wlan[0].mac.dcf packetReceivedFromPeerMulticast:vector(packetBytes) ETV
attr interpolationmode none
attr source ieee80211Multicast(packetReceivedFromPeer)
attr title "packets received: multicast, vector(packetBytes)"
vector 114 Scenario.node[7].wlan[0].mac.dcf packetReceivedFromPeerWithoutRetry:vector(packetBytes) ETV
attr interpolationmode none
attr source ieee80211NotRetry(packetReceivedFromPeer)
attr title "packets received: without retry, vector(packetBytes)"
vector 115 Scenario.node[7].wlan[0].mac packetSentToUpper:vector(packetBytes) ETV
attr interpolationmode none
attr title "packets sent to upper layer, vector(packetBytes)"
vector 116 Scenario.node[7].udp packetReceived:vector(packetBytes) ETV
attr interpolationmode none
attr source packetReceived
attr title "packets received, vector(packetBytes)"
vector 117 Scenario.node[7].udp passedUpPk:vector(count) ETV
attr interpolationmode none
attr source packetSentToUpper
attr title "packets passed up, vector(count)"
vector 118 Scenario.node[7].app[0] packetReceived:vector(packetBytes) ETV
attr interpolationmode none
attr source packetReceived
attr title "packets received, vector(packetBytes)"
vector 119 Scenario.node[7].app[0] throughput:vector ETV
attr source throughput(packetReceived)
attr title "throughput, vector"
attr unit bps
vector 120 Scenario.node[7].app[0] rcvdPkLifetime:vector ETV
attr interpolationmode none
attr source dataAge(packetReceived)
attr title "received packet lifetime, vector"
attr unit s
vector 121 Scenario.node[12].wlan[0].mac packetReceivedFromLower:vector(packetBytes) ETV
attr interpolationmode none
attr title "packets received from lower layer, vector(packetBytes)"
vector 122 Scenario.node[12].wlan[0].mac.dcf packetReceivedFromPeer:vector(packetBytes) ETV
attr interpolationmode none
attr title "packets received, vector(packetBytes)"
vector 123 Scenario.node[12].wlan[0].mac.dcf packetReceivedFromPeerMulticast:vector(packetBytes) ETV
attr interpolationmode none
attr source ieee80211Multicast(packetReceivedFromPeer)
attr title "packets received: multicast, vector(packetBytes)"
vector 124 Scenario.node[12].wlan[0].mac.dcf packetReceivedFromPeerWithoutRetry:vector(packetBytes) ETV
attr interpolationmode none
attr source ieee80211NotRetry(packetReceivedFromPeer)
attr title "packets received: without retry, vector(packetBytes)"
vector 125 Scenario.node[12].wlan[0].mac packetSentToUpper:vector(packetBytes) ETV
attr interpolationmode none
attr title "packets sent to upper layer, vector(packetBytes)"
vector 126 Scenario.node[12].udp packetReceived:vector(packetBytes) ETV
attr interpolationmode none
attr source packetReceived
attr title "packets received, vector(packetBytes)"
vector 127 Scenario.node[12].udp passedUpPk:vector(count) ETV
attr interpolationmode none
attr source packetSentToUpper
attr title "packets passed up, vector(count)"
vector 128 Scenario.node[12].app[0] packetReceived:vector(packetBytes) ETV
attr interpolationmode none
attr source packetReceived
attr title "packets received, vector(packetBytes)"
vector 129 Scenario.node[12].app[0] throughput:vector ETV
attr source throughput(packetReceived)
attr title "throughput, vector"
attr unit bps
vector 130 Scenario.node[12].app[0] rcvdPkLifetime:vector ETV
attr interpolationmode none
attr source dataAge(packetReceived)
attr title "received packet lifetime, vector"
attr unit s
vector 131 Scenario.node[5].wlan[0].mac packetReceivedFromLower:vector(packetBytes) ETV
attr interpolationmode none
attr title "packets received from lower layer, vector(packetBytes)"
vector 132 Scenario.node[5].wlan[0].mac.dcf packetReceivedFromPeer:vector(packetBytes) ETV
attr interpolationmode none
attr title "packets received, vector(packetBytes)"
vector 133 Scenario.node[5].wlan[0].mac.dcf packetReceivedFromPeerMulticast:vector(packetBytes) ETV
attr interpolationmode none
attr source ieee80211Multicast(packetReceivedFromPeer)
attr title "packets received: multicast, vector(packetBytes)"
vector 134 Scenario.node[5].wlan[0].mac.dcf packetReceivedFromPeerWithoutRetry:vector(packetBytes) ETV
attr interpolationmode none
attr source ieee80211NotRetry(packetReceivedFromPeer)
attr title "packets received: without retry, vector(packetBytes)"
vector 135 Scenario.node[5].wlan[0].mac packetSentToUpper:vector(packetBytes) ETV
attr interpolationmode none
attr title "packets sent to upper layer, vector(packetBytes)"
vector 136 Scenario.node[5].udp packetReceived:vector(packetBytes) ETV
attr interpolationmode none
attr source packetReceived
attr title "packets received, vector(packetBytes)"
vector 137 Scenario.node[5].udp passedUpPk:vector(count) ETV
attr interpolationmode none
attr source packetSentToUpper
attr title "packets passed up, vector(count)"
vector 138 Scenario.node[5].app[0] packetReceived:vector(packetBytes) ETV
attr interpolationmode none
attr source packetReceived
attr title "packets received, vector(packetBytes)"
vector 139 Scenario.node[5].app[0] throughput:vector ETV
attr source throughput(packetReceived)
attr title "throughput, vector"
attr unit bps
vector 140 Scenario.node[5].app[0] rcvdPkLifetime:vector ETV
attr interpolationmode none
attr source dataAge(packetReceived)
attr title "received packet lifetime, vector"
attr unit s
vector 141 Scenario.node[8].wlan[0].mac packetReceivedFromLower:vector(packetBytes) ETV
attr interpolationmode none
attr title "packets received from lower layer, vector(packetBytes)"
vector 142 Scenario.node[8].wlan[0].mac.dcf packetReceivedFromPeer:vector(packetBytes) ETV
attr interpolationmode none
attr title "packets received, vector(packetBytes)"
vector 143 Scenario.node[8].wlan[0].mac.dcf packetReceivedFromPeerMulticast:vector(packetBytes) ETV
attr interpolationmode none
attr source ieee80211Multicast(packetReceivedFromPeer)
attr title "packets received: multicast, vector(packetBytes)"
vector 144 Scenario.node[8].wlan[0].mac.dcf packetReceivedFromPeerWithoutRetry:vector(packetBytes) ETV
attr interpolationmode none
attr source ieee80211NotRetry(packetReceivedFromPeer)
attr title "packets received: without retry, vector(packetBytes)"
vector 145 Scenario.node[8].wlan[0].mac packetSentToUpper:vector(packetBytes) ETV
attr interpolationmode none
attr title "packets sent to upper layer, vector(packetBytes)"
vector 146 Scenario.node[8].udp packetReceived:vector(packetBytes) ETV
attr interpolationmode none
attr source packetReceived
attr title "packets received, vector(packetBytes)"
vector 147 Scenario.node[8].udp passedUpPk:vector(count) ETV
attr interpolationmode none
attr source packetSentToUpper
attr title "packets passed up, vector(count)"
vector 148 Scenario.node[8].app[0] packetReceived:vector(packetBytes) ETV
attr interpolationmode none
attr source packetReceived
attr title "packets received, vector(packetBytes)"
vector 149 Scenario.node[8].app[0] throughput:vector ETV
attr source throughput(packetReceived)
attr title "throughput, vector"
attr unit bps
vector 150 Scenario.node[8].app[0] rcvdPkLifetime:vector ETV
attr interpolationmode none
attr source dataAge(packetReceived)
attr title "received packet lifetime, vector"
attr unit s
vector 151 Scenario.node[6].wlan[0].mac packetReceivedFromLower:vector(packetBytes) ETV
attr interpolationmode none
attr title "packets received from lower layer, vector(packetBytes)"
vector 152 Scenario.node[6].wlan[0].mac.dcf packetReceivedFromPeer:vector(packetBytes) ETV
attr interpolationmode none
attr title "packets received, vector(packetBytes)"
vector 153 Scenario.node[6].wlan[0].mac.dcf packetReceivedFromPeerMulticast:vector(packetBytes) ETV
attr interpolationmode none
attr source ieee80211Multicast(packetReceivedFromPeer)
attr title "packets received: multicast, vector(packetBytes)"
vector 154 Scenario.node[6].wlan[0].mac.dcf packetReceivedFromPeerWithoutRetry:vector(packetBytes) ETV
attr interpolationmode none
attr source ieee80211NotRetry(packetReceivedFromPeer)
attr title "packets received: without retry, vector(packetBytes)"
vector 155 Scenario.node[6].wlan[0].mac packetSentToUpper:vector(packetBytes) ETV
attr interpolationmode none
attr title "packets sent to upper layer, vector(packetBytes)"
vector 156 Scenario.node[6].udp packetReceived:vector(packetBytes) ETV
attr interpolationmode none
attr source packetReceived
attr title "packets received, vector(packetBytes)"
vector 157 Scenario.node[6].udp passedUpPk:vector(count) ETV
attr interpolationmode none
attr source packetSentToUpper
attr title "packets passed up, vector(count)"
vector 158 Scenario.node[6].app[0] packetReceived:vector(packetBytes) ETV
attr interpolationmode none
attr source packetReceived
attr title "packets received, vector(packetBytes)"
vector 159 Scenario.node[6].app[0] throughput:vector ETV
attr source throughput(packetReceived)
attr title "throughput, vector"
attr unit bps
vector 160 Scenario.node[6].app[0] rcvdPkLifetime:vector ETV
attr interpolationmode none
attr source dataAge(packetReceived)
attr title "received packet lifetime, vector"
attr unit s
vector 161 Scenario.node[9].wlan[0].mac packetReceivedFromLower:vector(packetBytes) ETV
attr interpolationmode none
attr title "packets received from lower layer, vector(packetBytes)"
vector 162 Scenario.node[9].wlan[0].mac.dcf packetReceivedFromPeer:vector(packetBytes) ETV
attr interpolationmode none
attr title "packets received, vector(packetBytes)"
vector 163 Scenario.node[9].wlan[0].mac.dcf packetReceivedFromPeerMulticast:vector(packetBytes) ETV
attr interpolationmode none
attr source ieee80211Multicast(packetReceivedFromPeer)
attr title "packets received: multicast, vector(packetBytes)"
vector 164 Scenario.node[9].wlan[0].mac.dcf packetReceivedFromPeerWithoutRetry:vector(packetBytes) ETV
attr interpolationmode none
attr source ieee80211NotRetry(packetReceivedFromPeer)
attr title "packets received: without retry, vector(packetBytes)"
vector 165 Scenario.node[9].wlan[0].mac packetSentToUpper:vector(packetBytes) ETV
attr interpolationmode none
attr title "packets sent to upper layer, vector(packetBytes)"
vector 166 Scenario.node[9].udp packetReceived:vector(packetBytes) ETV
attr interpolationmode none
attr source packetReceived
attr title "packets received, vector(packetBytes)"
vector 167 Scenario.node[9].udp passedUpPk:vector(count) ETV
attr interpolationmode none
attr source packetSentToUpper
attr title "packets passed up, vector(count)"
vector 168 Scenario.node[9].app[0] packetReceived:vector(packetBytes) ETV
attr interpolationmode none
attr source packetReceived
attr title "packets received, vector(packetBytes)"
vector 169 Scenario.node[9].app[0] throughput:vector ETV
attr source throughput(packetReceived)
attr title "throughput, vector"
attr unit bps
vector 170 Scenario.node[9].app[0] rcvdPkLifetime:vector ETV
attr interpolationmode none
attr source dataAge(packetReceived)
attr title "received packet lifetime, vector"
attr unit s
vector 171 Scenario.node[10].wlan[0].mac packetReceivedFromLower:vector(packetBytes) ETV
attr interpolationmode none
attr title "packets received from lower layer, vector(packetBytes)"
vector 172 Scenario.node[10].wlan[0].mac.dcf packetReceivedFromPeer:vector(packetBytes) ETV
attr interpolationmode none
attr title "packets received, vector(packetBytes)"
vector 173 Scenario.node[10].wlan[0].mac.dcf packetReceivedFromPeerMulticast:vector(packetBytes) ETV
attr interpolationmode none
attr source ieee80211Multicast(packetReceivedFromPeer)
attr title "packets received: multicast, vector(packetBytes)"
vector 174 Scenario.node[10].wlan[0].mac.dcf packetReceivedFromPeerWithoutRetry:vector(packetBytes) ETV
attr interpolationmode none
attr source ieee80211NotRetry(packetReceivedFromPeer)
attr title "packets received: without retry, vector(packetBytes)"
vector 175 Scenario.node[10].wlan[0].mac packetSentToUpper:vector(packetBytes) ETV
attr interpolationmode none
attr title "packets sent to upper layer, vector(packetBytes)"
vector 176 Scenario.node[10].udp packetReceived:vector(packetBytes) ETV
attr interpolationmode none
attr source packetReceived
attr title "packets received, vector(packetBytes)"
vector 177 Scenario.node[10].udp passedUpPk:vector(count) ETV
attr interpolationmode none
attr source packetSentToUpper
attr title "packets passed up, vector(count)"
vector 178 Scenario.node[10].app[0] packetReceived:vector(packetBytes) ETV
attr interpolationmode none
attr source packetReceived
attr title "packets received, vector(packetBytes)"
vector 179 Scenario.node[10].app[0] throughput:vector ETV
attr source throughput(packetReceived)
attr title "throughput, vector"
attr unit bps
vector 180 Scenario.node[10].app[0] rcvdPkLifetime:vector ETV
attr interpolationmode none
attr source dataAge(packetReceived)
attr title "received packet lifetime, vector"
attr unit s
vector 181 Scenario.node[13].wlan[0].mac packetReceivedFromLower:vector(packetBytes) ETV
attr interpolationmode none
attr title "packets received from lower layer, vector(packetBytes)"
vector 182 Scenario.node[13].wlan[0].mac.dcf packetReceivedFromPeer:vector(packetBytes) ETV
attr interpolationmode none
attr title "packets received, vector(packetBytes)"
vector 183 Scenario.node[13].wlan[0].mac.dcf packetReceivedFromPeerMulticast:vector(packetBytes) ETV
attr interpolationmode none
attr source ieee80211Multicast(packetReceivedFromPeer)
attr title "packets received: multicast, vector(packetBytes)"
vector 184 Scenario.node[13].wlan[0].mac.dcf packetReceivedFromPeerWithoutRetry:vector(packetBytes) ETV
attr interpolationmode none
attr source ieee80211NotRetry(packetReceivedFromPeer)
attr title "packets received: without retry, vector(packetBytes)"
vector 185 Scenario.node[13].wlan[0].mac packetSentToUpper:vector(packetBytes) ETV
attr interpolationmode none
attr title "packets sent to upper layer, vector(packetBytes)"
vector 186 Scenario.node[13].udp packetReceived:vector(packetBytes) ETV
attr interpolationmode none
attr source packetReceived
attr title "packets received, vector(packetBytes)"
vector 187 Scenario.node[13].udp passedUpPk:vector(count) ETV
attr interpolationmode none
attr source packetSentToUpper
attr title "packets passed up, vector(count)"
vector 188 Scenario.node[13].app[0] packetReceived:vector(packetBytes) ETV
attr interpolationmode none
attr source packetReceived
attr title "packets received, vector(packetBytes)"
vector 189 Scenario.node[13].app[0] throughput:vector ETV
attr source throughput(packetReceived)
attr title "throughput, vector"
attr unit bps
vector 190 Scenario.node[13].app[0] rcvdPkLifetime:vector ETV
attr interpolationmode none
attr source dataAge(packetReceived)
attr title "received packet lifetime, vector"
attr unit s
vector 191 Scenario.node[14].wlan[0].radio radioMode:vector ETV
attr interpolationmode sample-hold
attr source radioModeChanged
attr title "Radio mode, vector"
vector 192 Scenario.node[14].wlan[0].radio radioChannel:vector ETV
attr interpolationmode sample-hold
attr source radioChannelChanged
attr title "Radio channel, vector"
vector 193 Scenario.node[14].wlan[0].radio receptionState:vector ETV
attr interpolationmode sample-hold
attr source receptionStateChanged
attr title "Radio reception state, vector"
vector 194 Scenario.node[14].wlan[0].mac.dcf.recoveryProcedure contentionWindowChanged:vector ETV
attr interpolationmode sample-hold
attr title "contention window, vector"
vector 195 Scenario.node[15].wlan[0].radio radioMode:vector ETV
attr interpolationmode sample-hold
attr source radioModeChanged
attr title "Radio mode, vector"
vector 196 Scenario.node[15].wlan[0].radio radioChannel:vector ETV
attr interpolationmode sample-hold
attr source radioChannelChanged
attr title "Radio channel, vector"
vector 197 Scenario.node[15].wlan[0].radio receptionState:vector ETV
attr interpolationmode sample-hold
attr source receptionStateChanged
attr title "Radio reception state, vector"
vector 198 Scenario.node[15].wlan[0].mac.dcf.recoveryProcedure contentionWindowChanged:vector ETV
attr interpolationmode sample-hold
attr title "contention window, vector"
vector 199 Scenario.node[16].wlan[0].radio radioMode:vector ETV
attr interpolationmode sample-hold
attr source radioModeChanged
attr title "Radio mode, vector"
vector 200 Scenario.node[16].wlan[0].radio radioChannel:vector ETV
attr interpolationmode sample-hold
attr source radioChannelChanged
attr title "Radio channel, vector"
vector 201 Scenario.node[16].wlan[0].radio receptionState:vector ETV
attr interpolationmode sample-hold
attr source receptionStateChanged
attr title "Radio reception state, vector"
vector 202 Scenario.node[16].wlan[0].mac.dcf.recoveryProcedure contentionWindowChanged:vector ETV
attr interpolationmode sample-hold
attr title "contention window, vector"
vector 203 Scenario.node[17].wlan[0].radio radioMode:vector ETV
attr interpolationmode sample-hold
attr source radioModeChanged
attr title "Radio mode, vector"
vector 204 Scenario.node[17].wlan[0].radio radioChannel:vector ETV
attr interpolationmode sample-hold
attr source radioChannelChanged
attr title "Radio channel, vector"
vector 205 Scenario.node[17].wlan[0].radio receptionState:vector ETV
attr interpolationmode sample-hold
attr source receptionStateChanged
attr title "Radio reception state, vector"
vector 206 Scenario.node[17].wlan[0].mac.dcf.recoveryProcedure contentionWindowChanged:vector ETV
attr interpolationmode sample-hold
attr title "contention window, vector"
vector 207 Scenario.node[18].wlan[0].radio radioMode:vector ETV
attr interpolationmode sample-hold
attr source radioModeChanged
attr title "Radio mode, vector"
vector 208 Scenario.node[18].wlan[0].radio radioChannel:vector ETV
attr interpolationmode sample-hold
attr source radioChannelChanged
attr title "Radio channel, vector"
vector 209 Scenario.node[18].wlan[0].radio receptionState:vector ETV
attr interpolationmode sample-hold
attr source receptionStateChanged
attr title "Radio reception state, vector"
vector 210 Scenario.node[18].wlan[0].mac.dcf.recoveryProcedure contentionWindowChanged:vector ETV
attr interpolationmode sample-hold
attr title "contention window, vector"
vector 211 Scenario.node[19].wlan[0].radio radioMode:vector ETV
attr interpolationmode sample-hold
attr source radioModeChanged
attr title "Radio mode, vector"
vector 212 Scenario.node[19].wlan[0].radio radioChannel:vector ETV
attr interpolationmode sample-hold
attr source radioChannelChanged
attr title "Radio channel, vector"
vector 213 Scenario.node[19].wlan[0].radio receptionState:vector ETV
attr interpolationmode sample-hold
attr source receptionStateChanged
attr title "Radio reception state, vector"
vector 214 Scenario.node[19].wlan[0].mac.dcf.recoveryProcedure contentionWindowChanged:vector ETV
attr interpolationmode sample-hold
attr title "contention window, vector"
vector 215 Scenario.node[3].app[0] throughput:vector ETV
attr source throughput(packetReceived)
attr title "throughput, vector"
attr unit bps
15	41	3.1	15
14	41	3.1	1
12	41	3.1	0
12	41	3.1	0
12	41	3.1	2
13	41	3.1	3
215	394	0.1	0
215	394	0.2	0
215	394	0.3	0
215	394	0.4	0
215	394	0.5	0
215	394	0.6	0
215	394	0.7	0
215	394	0.8	0
215	394	0.9	0
215	394	1	0
215	394	1.1	0
215	394	1.2	0
215	394	1.3	0
215	394	1.4	0
215	394	1.5	0
215	394	1.6	0
215	394	1.7	0
215	394	1.8	0
215	394	1.9	0
215	394	2	0
215	394	2.1	0
215	394	2.2	0
215	394	2.3	0
215	394	2.4	0
215	394	2.5	0
215	394	2.6	0
215	394	2.7	0
215	394	2.8	0
215	394	2.9	0
215	394	3	0
215	394	3.1	0
215	394	3.2	0
215	394	3.3	0
215	394	3.4	0
215	394	3.5	0
215	394	3.6	0
215	394	3.7	0
215	394	3.8	0
215	394	3.9	0
215	394	4	0
215	394	4.1	0
215	394	4.2	0
215	394	4.3	0
215	394	4.4	0
215	394	4.5	0
215	394	4.6	0
215	394	4.7	0
215	394	4.8	0
215	394	4.9	0
215	394	5	0
215	394	5.1	0
215	394	5.2	0
215	394	5.3	0
215	394	5.4	0
215	394	5.5	0
215	394	5.6	0
215	394	5.7	0
215	394	5.8	0
215	394	5.9	0
215	394	6	0
215	394	6.1	0
215	394	6.2	0
215	394	6.3	0
215	394	6.4	0
215	394	6.5	0
215	394	6.6	0
215	394	6.7	0
215	394	6.8	0
215	394	6.9	0
215	394	7	0
215	394	7.1	0
215	394	7.2	0
215	394	7.3	0
215	394	7.4	0
215	394	7.5	0
215	394	7.6	0
215	394	7.7	0
215	394	7.8	0
215	394	7.9	0
215	394	8	0
215	394	8.1	0
215	394	8.2	0
215	394	8.3	0
215	394	8.4	0
215	394	8.5	0
215	394	8.6	0
215	394	8.7	0
215	394	8.8	0
215	394	8.9	0
215	394	9	0
215	394	9.1	0
215	394	9.2	0
215	394	9.3	0
215	394	9.4	0
215	394	9.5	0
215	394	9.6	0
215	394	9.7	0
215	394	9.8	0
215	394	9.9	0
215	394	10	0
215	394	10.1	0
215	394	10.2	0
215	394	10.3	0
215	394	10.4	0
215	394	10.5	0
215	394	10.6	0
215	394	10.7	0
215	394	10.8	0
215	394	10.9	0
215	394	11	0
215	394	11.1	0
215	394	11.2	0
215	394	11.3	0
215	394	11.4	0
215	394	11.5	0
215	394	11.6	0
215	394	11.7	0
215	394	11.8	0
215	394	11.9	0
215	394	12	0
215	394	12.1	0
215	394	12.2	0
215	394	12.3	0
215	394	12.4	0
215	394	12.5	0
215	394	12.6	0
215	394	12.7	0
215	394	12.8	0
215	394	12.9	0
215	394	13	0
215	394	13.1	0
215	394	13.2	0
215	394	13.3	0
215	394	13.4	0
215	394	13.5	0
215	394	13.6	0
215	394	13.7	0
215	394	13.8	0
215	394	13.9	0
215	394	14	0
215	394	14.1	0
215	394	14.2	0
215	394	14.3	0
215	394	14.4	0
215	394	14.5	0
215	394	14.6	0
215	394	14.7	0
215	394	14.8	0
215	394	14.9	0
215	394	15	0
215	394	15.1	0
215	394	15.2	0
215	394	15.3	0
215	394	15.4	0
215	394	15.5	0
215	394	15.6	0
215	394	15.7	0
215	394	15.8	0
215	394	15.9	0
215	394	16	0
215	394	16.1	0
215	394	16.2	0
215	394	16.3	0
215	394	16.4	0
215	394	16.5	0
215	394	16.6	0
215	394	16.7	0
215	394	16.8	0
215	394	16.9	0
215	394	17	0
215	394	17.1	0
215	394	17.2	0
215	394	17.3	0
215	394	17.4	0
215	394	17.5	0
215	394	17.6	0
215	394	17.7	0
215	394	17.8	0
215	394	17.9	0
215	394	18	0
215	394	18.1	0
215	394	18.2	0
215	394	18.3	0
215	394	18.4	0
215	394	18.5	0
215	394	18.6	0
215	394	18.7	0
215	394	18.8	0
215	394	18.9	0
215	394	19	0
215	394	19.1	0
215	394	19.2	0
215	394	19.3	0
215	394	19.4	0
215	394	19.5	0
215	394	19.6	0
215	394	19.7	0
215	394	19.8	0
215	394	19.9	0
215	394	20	0
215	394	20.1	0
vector 216 Scenario.node[20].wlan[0].radio radioMode:vector ETV
attr interpolationmode sample-hold
attr source radioModeChanged
attr title "Radio mode, vector"
vector 217 Scenario.node[20].wlan[0].radio radioChannel:vector ETV
attr interpolationmode sample-hold
attr source radioChannelChanged
attr title "Radio channel, vector"
vector 218 Scenario.node[20].wlan[0].radio receptionState:vector ETV
attr interpolationmode sample-hold
attr source receptionStateChanged
attr title "Radio reception state, vector"
vector 219 Scenario.node[20].wlan[0].mac.dcf.recoveryProcedure contentionWindowChanged:vector ETV
attr interpolationmode sample-hold
attr title "contention window, vector"
vector 220 Scenario.node[16].wlan[0].mac packetReceivedFromLower:vector(packetBytes) ETV
attr interpolationmode none
attr title "packets received from lower layer, vector(packetBytes)"
vector 221 Scenario.node[16].wlan[0].mac.dcf packetReceivedFromPeer:vector(packetBytes) ETV
attr interpolationmode none
attr title "packets received, vector(packetBytes)"
vector 222 Scenario.node[16].wlan[0].mac.dcf packetReceivedFromPeerMulticast:vector(packetBytes) ETV
attr interpolationmode none
attr source ieee80211Multicast(packetReceivedFromPeer)
attr title "packets received: multicast, vector(packetBytes)"
vector 223 Scenario.node[16].wlan[0].mac.dcf packetReceivedFromPeerWithoutRetry:vector(packetBytes) ETV
attr interpolationmode none
attr source ieee80211NotRetry(packetReceivedFromPeer)
attr title "packets received: without retry, vector(packetBytes)"
vector 224 Scenario.node[16].wlan[0].mac packetSentToUpper:vector(packetBytes) ETV
attr interpolationmode none
attr title "packets sent to upper layer, vector(packetBytes)"
vector 225 Scenario.node[16].udp packetReceived:vector(packetBytes) ETV
attr interpolationmode none
attr source packetReceived
attr title "packets received, vector(packetBytes)"
vector 226 Scenario.node[16].udp passedUpPk:vector(count) ETV
attr interpolationmode none
attr source packetSentToUpper
attr title "packets passed up, vector(count)"
vector 227 Scenario.node[16].app[0] packetReceived:vector(packetBytes) ETV
attr interpolationmode none
attr source packetReceived
attr title "packets received, vector(packetBytes)"
vector 228 Scenario.node[16].app[0] throughput:vector ETV
attr source throughput(packetReceived)
attr title "throughput, vector"
attr unit bps
vector 229 Scenario.node[16].app[0] rcvdPkLifetime:vector ETV
attr interpolationmode none
attr source dataAge(packetReceived)
attr title "received packet lifetime, vector"
attr unit s
vector 230 Scenario.node[17].wlan[0].mac packetReceivedFromLower:vector(packetBytes) ETV
attr interpolationmode none
attr title "packets received from lower layer, vector(packetBytes)"
vector 231 Scenario.node[17].wlan[0].mac.dcf packetReceivedFromPeer:vector(packetBytes) ETV
attr interpolationmode none
attr title "packets received, vector(packetBytes)"
vector 232 Scenario.node[17].wlan[0].mac.dcf packetReceivedFromPeerMulticast:vector(packetBytes) ETV
attr interpolationmode none
attr source ieee80211Multicast(packetReceivedFromPeer)
attr title "packets received: multicast, vector(packetBytes)"
vector 233 Scenario.node[17].wlan[0].mac.dcf packetReceivedFromPeerWithoutRetry:vector(packetBytes) ETV
attr interpolationmode none
attr source ieee80211NotRetry(packetReceivedFromPeer)
attr title "packets received: without retry, vector(packetBytes)"
vector 234 Scenario.node[17].wlan[0].mac packetSentToUpper:vector(packetBytes) ETV
attr interpolationmode none
attr title "packets sent to upper layer, vector(packetBytes)"
vector 235 Scenario.node[17].udp packetReceived:vector(packetBytes) ETV
attr interpolationmode none
attr source packetReceived
attr title "packets received, vector(packetBytes)"
vector 236 Scenario.node[17].udp passedUpPk:vector(count) ETV
attr interpolationmode none
attr source packetSentToUpper
attr title "packets passed up, vector(count)"
vector 237 Scenario.node[17].app[0] packetReceived:vector(packetBytes) ETV
attr interpolationmode none
attr source packetReceived
attr title "packets received, vector(packetBytes)"
vector 238 Scenario.node[17].app[0] throughput:vector ETV
attr source throughput(packetReceived)
attr title "throughput, vector"
attr unit bps
vector 239 Scenario.node[17].app[0] rcvdPkLifetime:vector ETV
attr interpolationmode none
attr source dataAge(packetReceived)
attr title "received packet lifetime, vector"
attr unit s
vector 240 Scenario.node[14].wlan[0].mac packetReceivedFromLower:vector(packetBytes) ETV
attr interpolationmode none
attr title "packets received from lower layer, vector(packetBytes)"
vector 241 Scenario.node[14].wlan[0].mac.dcf packetReceivedFromPeer:vector(packetBytes) ETV
attr interpolationmode none
attr title "packets received, vector(packetBytes)"
vector 242 Scenario.node[14].wlan[0].mac.dcf packetReceivedFromPeerMulticast:vector(packetBytes) ETV
attr interpolationmode none
attr source ieee80211Multicast(packetReceivedFromPeer)
attr title "packets received: multicast, vector(packetBytes)"
vector 243 Scenario.node[14].wlan[0].mac.dcf packetReceivedFromPeerWithoutRetry:vector(packetBytes) ETV
attr interpolationmode none
attr source ieee80211NotRetry(packetReceivedFromPeer)
attr title "packets received: without retry, vector(packetBytes)"
vector 244 Scenario.node[14].wlan[0].mac packetSentToUpper:vector(packetBytes) ETV
attr interpolationmode none
attr title "packets sent to upper layer, vector(packetBytes)"
vector 245 Scenario.node[14].udp packetReceived:vector(packetBytes) ETV
attr interpolationmode none
attr source packetReceived
attr title "packets received, vector(packetBytes)"
vector 246 Scenario.node[14].udp passedUpPk:vector(count) ETV
attr interpolationmode none
attr source packetSentToUpper
attr title "packets passed up, vector(count)"
vector 247 Scenario.node[14].app[0] packetReceived:vector(packetBytes) ETV
attr interpolationmode none
attr source packetReceived
attr title "packets received, vector(packetBytes)"
vector 248 Scenario.node[14].app[0] throughput:vector ETV
attr source throughput(packetReceived)
attr title "throughput, vector"
attr unit bps
vector 249 Scenario.node[14].app[0] rcvdPkLifetime:vector ETV
attr interpolationmode none
attr source dataAge(packetReceived)
attr title "received packet lifetime, vector"
attr unit s
vector 250 Scenario.node[20].wlan[0].mac packetReceivedFromLower:vector(packetBytes) ETV
attr interpolationmode none
attr title "packets received from lower layer, vector(packetBytes)"
vector 251 Scenario.node[20].wlan[0].mac.dcf packetReceivedFromPeer:vector(packetBytes) ETV
attr interpolationmode none
attr title "packets received, vector(packetBytes)"
vector 252 Scenario.node[20].wlan[0].mac.dcf packetReceivedFromPeerMulticast:vector(packetBytes) ETV
attr interpolationmode none
attr source ieee80211Multicast(packetReceivedFromPeer)
attr title "packets received: multicast, vector(packetBytes)"
vector 253 Scenario.node[20].wlan[0].mac.dcf packetReceivedFromPeerWithoutRetry:vector(packetBytes) ETV
attr interpolationmode none
attr source ieee80211NotRetry(packetReceivedFromPeer)
attr title "packets received: without retry, vector(packetBytes)"
vector 254 Scenario.node[20].wlan[0].mac packetSentToUpper:vector(packetBytes) ETV
attr interpolationmode none
attr title "packets sent to upper layer, vector(packetBytes)"
vector 255 Scenario.node[20].udp packetReceived:vector(packetBytes) ETV
attr interpolationmode none
attr source packetReceived
attr title "packets received, vector(packetBytes)"
vector 256 Scenario.node[20].udp passedUpPk:vector(count) ETV
attr interpolationmode none
attr source packetSentToUpper
attr title "packets passed up, vector(count)"
vector 257 Scenario.node[20].app[0] packetReceived:vector(packetBytes) ETV
attr interpolationmode none
attr source packetReceived
attr title "packets received, vector(packetBytes)"
vector 258 Scenario.node[20].app[0] throughput:vector ETV
attr source throughput(packetReceived)
attr title "throughput, vector"
attr unit bps
vector 259 Scenario.node[20].app[0] rcvdPkLifetime:vector ETV
attr interpolationmode none
attr source dataAge(packetReceived)
attr title "received packet lifetime, vector"
attr unit s
vector 260 Scenario.node[19].wlan[0].mac packetReceivedFromLower:vector(packetBytes) ETV
attr interpolationmode none
attr title "packets received from lower layer, vector(packetBytes)"
vector 261 Scenario.node[19].wlan[0].mac.dcf packetReceivedFromPeer:vector(packetBytes) ETV
attr interpolationmode none
attr title "packets received, vector(packetBytes)"
vector 262 Scenario.node[19].wlan[0].mac.dcf packetReceivedFromPeerMulticast:vector(packetBytes) ETV
attr interpolationmode none
attr source ieee80211Multicast(packetReceivedFromPeer)
attr title "packets received: multicast, vector(packetBytes)"
vector 263 Scenario.node[19].wlan[0].mac.dcf packetReceivedFromPeerWithoutRetry:vector(packetBytes) ETV
attr interpolationmode none
attr source ieee80211NotRetry(packetReceivedFromPeer)
attr title "packets received: without retry, vector(packetBytes)"
vector 264 Scenario.node[19].wlan[0].mac packetSentToUpper:vector(packetBytes) ETV
attr interpolationmode none
attr title "packets sent to upper layer, vector(packetBytes)"
vector 265 Scenario.node[19].udp packetReceived:vector(packetBytes) ETV
attr interpolationmode none
attr source packetReceived
attr title "packets received, vector(packetBytes)"
vector 266 Scenario.node[19].udp passedUpPk:vector(count) ETV
attr interpolationmode none
attr source packetSentToUpper
attr title "packets passed up, vector(count)"
vector 267 Scenario.node[19].app[0] packetReceived:vector(packetBytes) ETV
attr interpolationmode none
attr source packetReceived
attr title "packets received, vector(packetBytes)"
vector 268 Scenario.node[19].app[0] throughput:vector ETV
attr source throughput(packetReceived)
attr title "throughput, vector"
attr unit bps
vector 269 Scenario.node[19].app[0] rcvdPkLifetime:vector ETV
attr interpolationmode none
attr source dataAge(packetReceived)
attr title "received packet lifetime, vector"
attr unit s
vector 270 Scenario.node[18].wlan[0].mac packetReceivedFromLower:vector(packetBytes) ETV
attr interpolationmode none
attr title "packets received from lower layer, vector(packetBytes)"
vector 271 Scenario.node[18].wlan[0].mac.dcf packetReceivedFromPeer:vector(packetBytes) ETV
attr interpolationmode none
attr title "packets received, vector(packetBytes)"
vector 272 Scenario.node[18].wlan[0].mac.dcf packetReceivedFromPeerMulticast:vector(packetBytes) ETV
attr interpolationmode none
attr source ieee80211Multicast(packetReceivedFromPeer)
attr title "packets received: multicast, vector(packetBytes)"
vector 273 Scenario.node[18].wlan[0].mac.dcf packetReceivedFromPeerWithoutRetry:vector(packetBytes) ETV
attr interpolationmode none
attr source ieee80211NotRetry(packetReceivedFromPeer)
attr title "packets received: without retry, vector(packetBytes)"
vector 274 Scenario.node[18].wlan[0].mac packetSentToUpper:vector(packetBytes) ETV
attr interpolationmode none
attr title "packets sent to upper layer, vector(packetBytes)"
vector 275 Scenario.node[18].udp packetReceived:vector(packetBytes) ETV
attr interpolationmode none
attr source packetReceived
attr title "packets received, vector(packetBytes)"
vector 276 Scenario.node[18].udp passedUpPk:vector(count) ETV
attr interpolationmode none
attr source packetSentToUpper
attr title "packets passed up, vector(count)"
vector 277 Scenario.node[18].app[0] packetReceived:vector(packetBytes) ETV
attr interpolationmode none
attr source packetReceived
attr title "packets received, vector(packetBytes)"
vector 278 Scenario.node[18].app[0] throughput:vector ETV
attr source throughput(packetReceived)
attr title "throughput, vector"
attr unit bps
vector 279 Scenario.node[18].app[0] rcvdPkLifetime:vector ETV
attr interpolationmode none
attr source dataAge(packetReceived)
attr title "received packet lifetime, vector"
attr unit s
45	87	5.00015256926	158
45	299	15.000152706592	158
45	568	25.000152874619	158
45	792	35.000152627668	158
49	87	5.00015256926	130
49	299	15.000152706592	130
49	568	25.000152874619	130
49	792	35.000152627668	130
48	87	5.00015256926	158
48	299	15.000152706592	158
48	568	25.000152874619	158
48	792	35.000152627668	158
47	87	5.00015256926	158
47	299	15.000152706592	158
47	568	25.000152874619	158
47	792	35.000152627668	158
46	87	5.00015256926	158
46	299	15.000152706592	158
46	568	25.000152874619	158
46	792	35.000152627668	158
7	15	1.1	15
6	15	1.1	1
6	80	5.00000056926	3
6	86	5.00015256926	1
6	253	15.000000706592	3
6	298	15.000152706592	1
6	476	25.000000874619	3
6	567	25.000152874619	1
6	715	35.000000627668	3
6	791	35.000152627668	1
4	15	1.1	0
4	15	1.1	0
4	15	1.1	2
5	15	1.1	3
50	90	5.00015256926	108
50	302	15.000152706592	108
50	571	25.000152874619	108
50	795	35.000152627668	108
51	90	5.00015256926	1
51	302	15.000152706592	2
51	571	25.000152874619	3
51	795	35.000152627668	4
54	91	5.00015256926	0.00015256926
54	303	15.000152706592	0.000152706592
54	572	25.000152874619	0.000152874619
54	796	35.000152627668	0.000152627668
53	91	0.1	0
53	91	0.2	0
53	91	0.3	0
53	91	0.4	0
53	91	0.5	0
53	91	0.6	0
53	91	0.7	0
53	91	0.8	0
53	91	0.9	0
53	91	1	0
53	91	1.1	0
53	91	1.2	0
53	91	1.3	0
53	91	1.4	0
53	91	1.5	0
53	91	1.6	0
53	91	1.7	0
53	91	1.8	0
53	91	1.9	0
53	91	2	0
53	91	2.1	0
53	91	2.2	0
53	91	2.3	0
53	91	2.4	0
53	91	2.5	0
53	91	2.6	0
53	91	2.7	0
53	91	2.8	0
53	91	2.9	0
53	91	3	0
53	91	3.1	0
53	91	3.2	0
53	91	3.3	0
53	91	3.4	0
53	91	3.5	0
53	91	3.6	0
53	91	3.7	0
53	91	3.8	0
53	91	3.9	0
53	91	4	0
53	91	4.1	0
53	91	4.2	0
53	91	4.3	0
53	91	4.4	0
53	91	4.5	0
53	91	4.6	0
53	91	4.7	0
53	91	4.8	0
53	91	4.9	0
53	91	5	0
53	303	5.1	8000
53	303	5.2	0
53	303	5.3	0
53	303	5.4	0
53	303	5.5	0
53	303	5.6	0
53	303	5.7	0
53	303	5.8	0
53	303	5.9	0
53	303	6	0
53	303	6.1	0
53	303	6.2	0
53	303	6.3	0
53	303	6.4	0
53	303	6.5	0
53	303	6.6	0
53	303	6.7	0
53	303	6.8	0
53	303	6.9	0
53	303	7	0
53	303	7.1	0
53	303	7.2	0
53	303	7.3	0
53	303	7.4	0
53	303	7.5	0
53	303	7.6	0
53	303	7.7	0
53	303	7.8	0
53	303	7.9	0
53	303	8	0
53	303	8.1	0
53	303	8.2	0
53	303	8.3	0
53	303	8.4	0
53	303	8.5	0
53	303	8.6	0
53	303	8.7	0
53	303	8.8	0
53	303	8.9	0
53	303	9	0
53	303	9.1	0
53	303	9.2	0
53	303	9.3	0
53	303	9.4	0
53	303	9.5	0
53	303	9.6	0
53	303	9.7	0
53	303	9.8	0
53	303	9.9	0
53	303	10	0
53	303	10.1	0
53	303	10.2	0
53	303	10.3	0
53	303	10.4	0
53	303	10.5	0
53	303	10.6	0
53	303	10.7	0
53	303	10.8	0
53	303	10.9	0
53	303	11	0
53	303	11.1	0
53	303	11.2	0
53	303	11.3	0
53	303	11.4	0
53	303	11.5	0
53	303	11.6	0
53	303	11.7	0
53	303	11.8	0
53	303	11.9	0
53	303	12	0
53	303	12.1	0
53	303	12.2	0
53	303	12.3	0
53	303	12.4	0
53	303	12.5	0
53	303	12.6	0
53	303	12.7	0
53	303	12.8	0
53	303	12.9	0
53	303	13	0
53	303	13.1	0
53	303	13.2	0
53	303	13.3	0
53	303	13.4	0
53	303	13.5	0
53	303	13.6	0
53	303	13.7	0
53	303	13.8	0
53	303	13.9	0
53	303	14	0
53	303	14.1	0
53	303	14.2	0
53	303	14.3	0
53	303	14.4	0
53	303	14.5	0
53	303	14.6	0
53	303	14.7	0
53	303	14.8	0
53	303	14.9	0
53	303	15	0
53	572	15.1	8000
53	572	15.2	0
53	572	15.3	0
53	572	15.4	0
53	572	15.5	0
53	572	15.6	0
53	572	15.7	0
53	572	15.8	0
53	572	15.9	0
53	572	16	0
53	572	16.1	0
53	572	16.2	0
53	572	16.3	0
53	572	16.4	0
53	572	16.5	0
53	572	16.6	0
53	572	16.7	0
53	572	16.8	0
53	572	16.9	0
53	572	17	0
53	572	17.1	0
53	572	17.2	0
53	572	17.3	0
53	572	17.4	0
53	572	17.5	0
53	572	17.6	0
53	572	17.7	0
53	572	17.8	0
53	572	17.9	0
53	572	18	0
53	572	18.1	0
53	572	18.2	0
53	572	18.3	0
53	572	18.4	0
53	572	18.5	0
53	572	18.6	0
53	572	18.7	0
53	572	18.8	0
53	572	18.9	0
53	572	19	0
53	572	19.1	0
53	572	19.2	0
53	572	19.3	0
53	572	19.4	0
53	572	19.5	0
53	572	19.6	0
53	572	19.7	0
53	572	19.8	0
53	572	19.9	0
53	572	20	0
53	572	20.1	0
53	572	20.2	0
53	572	20.3	0
53	572	20.4	0
53	572	20.5	0
53	572	20.6	0
53	572	20.7	0
53	572	20.8	0
53	572	20.9	0
53	572	21	0
53	572	21.1	0
53	572	21.2	0
53	572	21.3	0
53	572	21.4	0
53	572	21.5	0
53	572	21.6	0
53	572	21.7	0
53	572	21.8	0
53	572	21.9	0
53	572	22	0
53	572	22.1	0
53	572	22.2	0
53	572	22.3	0
53	572	22.4	0
53	572	22.5	0
53	572	22.6	0
53	572	22.7	0
53	572	22.8	0
53	572	22.9	0
53	572	23	0
53	572	23.1	0
53	572	23.2	0
53	572	23.3	0
53	572	23.4	0
53	572	23.5	0
53	572	23.6	0
53	572	23.7	0
53	572	23.8	0
53	572	23.9	0
53	572	24	0
53	572	24.1	0
53	572	24.2	0
53	572	24.3	0
53	572	24.4	0
53	572	24.5	0
53	572	24.6	0
53	572	24.7	0
53	572	24.8	0
53	572	24.9	0
53	572	25	0
53	796	25.1	8000
53	796	25.2	0
53	796	25.3	0
53	796	25.4	0
53	796	25.5	0
53	796	25.6	0
53	796	25.7	0
53	796	25.8	0
53	796	25.9	0
53	796	26	0
53	796	26.1	0
53	796	26.2	0
53	796	26.3	0
53	796	26.4	0
53	796	26.5	0
53	796	26.6	0
53	796	26.7	0
53	796	26.8	0
53	796	26.9	0
53	796	27	0
53	796	27.1	0
53	796	27.2	0
53	796	27.3	0
53	796	27.4	0
53	796	27.5	0
53	796	27.6	0
53	796	27.7	0
53	796	27.8	0
53	796	27.9	0
53	796	28	0
53	796	28.1	0
53	796	28.2	0
53	796	28.3	0
53	796	28.4	0
53	796	28.5	0
53	796	28.6	0
53	796	28.7	0
53	796	28.8	0
53	796	28.9	0
53	796	29	0
53	796	29.1	0
53	796	29.2	0
53	796	29.3	0
53	796	29.4	0
53	796	29.5	0
53	796	29.6	0
53	796	29.7	0
53	796	29.8	0
53	796	29.9	0
53	796	30	0
53	796	30.1	0
53	796	30.2	0
53	796	30.3	0
53	796	30.4	0
53	796	30.5	0
53	796	30.6	0
53	796	30.7	0
53	796	30.8	0
53	796	30.9	0
53	796	31	0
53	796	31.1	0
53	796	31.2	0
53	796	31.3	0
53	796	31.4	0
53	796	31.5	0
53	796	31.6	0
53	796	31.7	0
53	796	31.8	0
53	796	31.9	0
53	796	32	0
53	796	32.1	0
53	796	32.2	0
53	796	32.3	0
53	796	32.4	0
53	796	32.5	0
53	796	32.6	0
53	796	32.7	0
53	796	32.8	0
53	796	32.9	0
53	796	33	0
53	796	33.1	0
53	796	33.2	0
53	796	33.3	0
53	796	33.4	0
53	796	33.5	0
53	796	33.6	0
53	796	33.7	0
53	796	33.8	0
53	796	33.9	0
53	796	34	0
53	796	34.1	0
53	796	34.2	0
53	796	34.3	0
53	796	34.4	0
53	796	34.5	0
53	796	34.6	0
53	796	34.7	0
53	796	34.8	0
53	796	34.9	0
53	796	35	0
53	850	35.1	8000
53	850	35.2	0
53	850	35.3	0
53	850	35.4	0
53	850	35.5	0
53	850	35.6	0
53	850	35.7	0
53	850	35.8	0
53	850	35.9	0
53	850	36	0
53	850	36.1	0
53	850	36.2	0
53	850	36.3	0
53	850	36.4	0
53	850	36.5	0
53	850	36.6	0
53	850	36.7	0
53	850	36.8	0
53	850	36.9	0
53	850	37	0
53	850	37.1	0
52	91	5.00015256926	100
52	303	15.000152706592	100
52	572	25.000152874619	100
52	796	35.000152627668	100
111	263	15.000152312069	158
111	484	25.000152238976	158
111	732	35.000152239201	158
115	263	15.000152312069	130
115	484	25.000152238976	130
115	732	35.000152239201	130
114	263	15.000152312069	158
114	484	25.000152238976	158
114	732	35.000152239201	158
113	263	15.000152312069	158
113	484	25.000152238976	158
113	732	35.000152239201	158
112	263	15.000152312069	158
112	484	25.000152238976	158
112	732	35.000152239201	158
86	132	7.1	15
85	132	7.1	1
85	247	15.000000312069	3
85	262	15.000152312069	1
85	462	25.000000238976	3
85	483	25.000152238976	1
85	705	35.000000239201	3
85	731	35.000152239201	1
83	132	7.1	0
83	132	7.1	0
83	132	7.1	2
84	132	7.1	3
116	266	15.000152312069	108
116	487	25.000152238976	108
116	735	35.000152239201	108
117	266	15.000152312069	1
117	487	25.000152238976	2
117	735	35.000152239201	3
120	267	15.000152312069	0.000152312069
120	488	25.000152238976	0.000152238976
120	736	35.000152239201	0.000152239201
119	267	0.1	0
119	267	0.2	0
119	267	0.3	0
119	267	0.4	0
119	267	0.5	0
119	267	0.6	0
119	267	0.7	0
119	267	0.8	0
119	267	0.9	0
119	267	1	0
119	267	1.1	0
119	267	1.2	0
119	267	1.3	0
119	267	1.4	0
119	267	1.5	0
119	267	1.6	0
119	267	1.7	0
119	267	1.8	0
119	267	1.9	0
119	267	2	0
119	267	2.1	0
119	267	2.2	0
119	267	2.3	0
119	267	2.4	0
119	267	2.5	0
119	267	2.6	0
119	267	2.7	0
119	267	2.8	0
119	267	2.9	0
119	267	3	0
119	267	3.1	0
119	267	3.2	0
119	267	3.3	0
119	267	3.4	0
119	267	3.5	0
119	267	3.6	0
119	267	3.7	0
119	267	3.8	0
119	267	3.9	0
119	267	4	0
119	267	4.1	0
119	267	4.2	0
119	267	4.3	0
119	267	4.4	0
119	267	4.5	0
119	267	4.6	0
119	267	4.7	0
119	267	4.8	0
119	267	4.9	0
119	267	5	0
119	267	5.1	0
119	267	5.2	0
119	267	5.3	0
119	267	5.4	0
119	267	5.5	0
119	267	5.6	0
119	267	5.7	0
119	267	5.8	0
119	267	5.9	0
119	267	6	0
119	267	6.1	0
119	267	6.2	0
119	267	6.3	0
119	267	6.4	0
119	267	6.5	0
119	267	6.6	0
119	267	6.7	0
119	267	6.8	0
119	267	6.9	0
119	267	7	0
119	267	7.1	0
119	267	7.2	0
119	267	7.3	0
119	267	7.4	0
119	267	7.5	0
119	267	7.6	0
119	267	7.7	0
119	267	7.8	0
119	267	7.9	0
119	267	8	0
119	267	8.1	0
119	267	8.2	0
119	267	8.3	0
119	267	8.4	0
119	267	8.5	0
119	267	8.6	0
119	267	8.7	0
119	267	8.8	0
119	267	8.9	0
119	267	9	0
119	267	9.1	0
119	267	9.2	0
119	267	9.3	0
119	267	9.4	0
119	267	9.5	0
119	267	9.6	0
119	267	9.7	0
119	267	9.8	0
119	267	9.9	0
119	267	10	0
119	267	10.1	0
119	267	10.2	0
119	267	10.3	0
119	267	10.4	0
119	267	10.5	0
119	267	10.6	0
119	267	10.7	0
119	267	10.8	0
119	267	10.9	0
119	267	11	0
119	267	11.1	0
119	267	11.2	0
119	267	11.3	0
119	267	11.4	0
119	267	11.5	0
119	267	11.6	0
119	267	11.7	0
119	267	11.8	0
119	267	11.9	0
119	267	12	0
119	267	12.1	0
119	267	12.2	0
119	267	12.3	0
119	267	12.4	0
119	267	12.5	0
119	267	12.6	0
119	267	12.7	0
119	267	12.8	0
119	267	12.9	0
119	267	13	0
119	267	13.1	0
119	267	13.2	0
119	267	13.3	0
119	267	13.4	0
119	267	13.5	0
119	267	13.6	0
119	267	13.7	0
119	267	13.8	0
119	267	13.9	0
119	267	14	0
119	267	14.1	0
119	267	14.2	0
119	267	14.3	0
119	267	14.4	0
119	267	14.5	0
119	267	14.6	0
119	267	14.7	0
119	267	14.8	0
119	267	14.9	0
119	267	15	0
119	488	15.1	8000
119	488	15.2	0
119	488	15.3	0
119	488	15.4	0
119	488	15.5	0
119	488	15.6	0
119	488	15.7	0
119	488	15.8	0
119	488	15.9	0
119	488	16	0
119	488	16.1	0
119	488	16.2	0
119	488	16.3	0
119	488	16.4	0
119	488	16.5	0
119	488	16.6	0
119	488	16.7	0
119	488	16.8	0
119	488	16.9	0
119	488	17	0
119	488	17.1	0
119	488	17.2	0
119	488	17.3	0
119	488	17.4	0
119	488	17.5	0
119	488	17.6	0
119	488	17.7	0
119	488	17.8	0
119	488	17.9	0
119	488	18	0
119	488	18.1	0
119	488	18.2	0
119	488	18.3	0
119	488	18.4	0
119	488	18.5	0
119	488	18.6	0
119	488	18.7	0
119	488	18.8	0
119	488	18.9	0
119	488	19	0
119	488	19.1	0
119	488	19.2	0
119	488	19.3	0
119	488	19.4	0
119	488	19.5	0
119	488	19.6	0
119	488	19.7	0
119	488	19.8	0
119	488	19.9	0
119	488	20	0
119	488	20.1	0
119	488	20.2	0
119	488	20.3	0
119	488	20.4	0
119	488	20.5	0
119	488	20.6	0
119	488	20.7	0
119	488	20.8	0
119	488	20.9	0
119	488	21	0
119	488	21.1	0
119	488	21.2	0
119	488	21.3	0
119	488	21.4	0
119	488	21.5	0
119	488	21.6	0
119	488	21.7	0
119	488	21.8	0
119	488	21.9	0
119	488	22	0
119	488	22.1	0
119	488	22.2	0
119	488	22.3	0
119	488	22.4	0
119	488	22.5	0
119	488	22.6	0
119	488	22.7	0
119	488	22.8	0
119	488	22.9	0
119	488	23	0
119	488	23.1	0
119	488	23.2	0
119	488	23.3	0
119	488	23.4	0
119	488	23.5	0
119	488	23.6	0
119	488	23.7	0
119	488	23.8	0
119	488	23.9	0
119	488	24	0
119	488	24.1	0
119	488	24.2	0
119	488	24.3	0
119	488	24.4	0
119	488	24.5	0
119	488	24.6	0
119	488	24.7	0
119	488	24.8	0
119	488	24.9	0
119	488	25	0
119	736	25.1	8000
119	736	25.2	0
119	736	25.3	0
119	736	25.4	0
119	736	25.5	0
119	736	25.6	0
119	736	25.7	0
119	736	25.8	0
119	736	25.9	0
119	736	26	0
119	736	26.1	0
119	736	26.2	0
119	736	26.3	0
119	736	26.4	0
119	736	26.5	0
119	736	26.6	0
119	736	26.7	0
119	736	26.8	0
119	736	26.9	0
119	736	27	0
119	736	27.1	0
119	736	27.2	0
119	736	27.3	0
119	736	27.4	0
119	736	27.5	0
119	736	27.6	0
119	736	27.7	0
119	736	27.8	0
119	736	27.9	0
119	736	28	0
119	736	28.1	0
119	736	28.2	0
119	736	28.3	0
119	736	28.4	0
119	736	28.5	0
119	736	28.6	0
119	736	28.7	0
119	736	28.8	0
119	736	28.9	0
119	736	29	0
119	736	29.1	0
119	736	29.2	0
119	736	29.3	0
119	736	29.4	0
119	736	29.5	0
119	736	29.6	0
119	736	29.7	0
119	736	29.8	0
119	736	29.9	0
119	736	30	0
119	736	30.1	0
119	736	30.2	0
119	736	30.3	0
119	736	30.4	0
119	736	30.5	0
119	736	30.6	0
119	736	30.7	0
119	736	30.8	0
119	736	30.9	0
119	736	31	0
119	736	31.1	0
119	736	31.2	0
119	736	31.3	0
119	736	31.4	0
119	736	31.5	0
119	736	31.6	0
119	736	31.7	0
119	736	31.8	0
119	736	31.9	0
119	736	32	0
119	736	32.1	0
119	736	32.2	0
119	736	32.3	0
119	736	32.4	0
119	736	32.5	0
119	736	32.6	0
119	736	32.7	0
119	736	32.8	0
119	736	32.9	0
119	736	33	0
119	736	33.1	0
119	736	33.2	0
119	736	33.3	0
119	736	33.4	0
119	736	33.5	0
119	736	33.6	0
119	736	33.7	0
119	736	33.8	0
119	736	33.9	0
119	736	34	0
119	736	34.1	0
119	736	34.2	0
119	736	34.3	0
119	736	34.4	0
119	736	34.5	0
119	736	34.6	0
119	736	34.7	0
119	736	34.8	0
119	736	34.9	0
119	736	35	0
119	890	35.1	8000
119	890	35.2	0
119	890	35.3	0
119	890	35.4	0
119	890	35.5	0
119	890	35.6	0
119	890	35.7	0
119	890	35.8	0
119	890	35.9	0
119	890	36	0
119	890	36.1	0
119	890	36.2	0
119	890	36.3	0
119	890	36.4	0
119	890	36.5	0
119	890	36.6	0
119	890	36.7	0
119	890	36.8	0
119	890	36.9	0
119	890	37	0
119	890	37.1	0
119	890	37.2	0
119	890	37.3	0
119	890	37.4	0
119	890	37.5	0
119	890	37.6	0
119	890	37.7	0
119	890	37.8	0
119	890	37.9	0
119	890	38	0
119	890	38.1	0
119	890	38.2	0
119	890	38.3	0
119	890	38.4	0
119	890	38.5	0
119	890	38.6	0
119	890	38.7	0
119	890	38.8	0
119	890	38.9	0
119	890	39	0
119	890	39.1	0
119	890	39.2	0
119	890	39.3	0
119	890	39.4	0
119	890	39.5	0
119	890	39.6	0
119	890	39.7	0
119	890	39.8	0
119	890	39.9	0
119	890	40	0
119	890	40.1	0
119	890	40.2	0
119	890	40.3	0
119	890	40.4	0
119	890	40.5	0
119	890	40.6	0
119	890	40.7	0
119	890	40.8	0
119	890	40.9	0
119	890	41	0
119	890	41.1	0
118	267	15.000152312069	100
118	488	25.000152238976	100
118	736	35.000152239201	100
181	317	15.000152900203	158
181	556	25.000152813892	158
181	798	35.000152720336	158
185	317	15.000152900203	130
185	556	25.000152813892	130
185	798	35.000152720336	130
184	317	15.000152900203	158
184	556	25.000152813892	158
184	798	35.000152720336	158
183	317	15.000152900203	158
183	556	25.000152813892	158
183	798	35.000152720336	158
182	317	15.000152900203	158
182	556	25.000152813892	158
182	798	35.000152720336	158
110	220	14.1	15
109	220	14.1	1
109	256	15.000000900203	3
109	316	15.000152900203	1
109	474	25.000000813892	3
109	555	25.000152813892	1
109	716	35.000000720336	3
109	797	35.000152720336	1
107	220	14.1	0
107	220	14.1	0
107	220	14.1	2
108	220	14.1	3
186	320	15.000152900203	108
186	559	25.000152813892	108
186	801	35.000152720336	108
187	320	15.000152900203	1
187	559	25.000152813892	2
187	801	35.000152720336	3
190	321	15.000152900203	0.000152900203
190	560	25.000152813892	0.000152813892
190	802	35.000152720336	0.000152720336
189	321	0.1	0
189	321	0.2	0
189	321	0.3	0
189	321	0.4	0
189	321	0.5	0
189	321	0.6	0
189	321	0.7	0
189	321	0.8	0
189	321	0.9	0
189	321	1	0
189	321	1.1	0
189	321	1.2	0
189	321	1.3	0
189	321	1.4	0
189	321	1.5	0
189	321	1.6	0
189	321	1.7	0
189	321	1.8	0
189	321	1.9	0
189	321	2	0
189	321	2.1	0
189	321	2.2	0
189	321	2.3	0
189	321	2.4	0
189	321	2.5	0
189	321	2.6	0
189	321	2.7	0
189	321	2.8	0
189	321	2.9	0
189	321	3	0
189	321	3.1	0
189	321	3.2	0
189	321	3.3	0
189	321	3.4	0
189	321	3.5	0
189	321	3.6	0
189	321	3.7	0
189	321	3.8	0
189	321	3.9	0
189	321	4	0
189	321	4.1	0
189	321	4.2	0
189	321	4.3	0
189	321	4.4	0
189	321	4.5	0
189	321	4.6	0
189	321	4.7	0
189	321	4.8	0
189	321	4.9	0
189	321	5	0
189	321	5.1	0
189	321	5.2	0
189	321	5.3	0
189	321	5.4	0
189	321	5.5	0
189	321	5.6	0
189	321	5.7	0
189	321	5.8	0
189	321	5.9	0
189	321	6	0
189	321	6.1	0
189	321	6.2	0
189	321	6.3	0
189	321	6.4	0
189	321	6.5	0
189	321	6.6	0
189	321	6.7	0
189	321	6.8	0
189	321	6.9	0
189	321	7	0
189	321	7.1	0
189	321	7.2	0
189	321	7.3	0
189	321	7.4	0
189	321	7.5	0
189	321	7.6	0
189	321	7.7	0
189	321	7.8	0
189	321	7.9	0
189	321	8	0
189	321	8.1	0
189	321	8.2	0
189	321	8.3	0
189	321	8.4	0
189	321	8.5	0
189	321	8.6	0
189	321	8.7	0
189	321	8.8	0
189	321	8.9	0
189	321	9	0
189	321	9.1	0
189	321	9.2	0
189	321	9.3	0
189	321	9.4	0
189	321	9.5	0
189	321	9.6	0
189	321	9.7	0
189	321	9.8	0
189	321	9.9	0
189	321	10	0
189	321	10.1	0
189	321	10.2	0
189	321	10.3	0
189	321	10.4	0
189	321	10.5	0
189	321	10.6	0
189	321	10.7	0
189	321	10.8	0
189	321	10.9	0
189	321	11	0
189	321	11.1	0
189	321	11.2	0
189	321	11.3	0
189	321	11.4	0
189	321	11.5	0
189	321	11.6	0
189	321	11.7	0
189	321	11.8	0
189	321	11.9	0
189	321	12	0
189	321	12.1	0
189	321	12.2	0
189	321	12.3	0
189	321	12.4	0
189	321	12.5	0
189	321	12.6	0
189	321	12.7	0
189	321	12.8	0
189	321	12.9	0
189	321	13	0
189	321	13.1	0
189	321	13.2	0
189	321	13.3	0
189	321	13.4	0
189	321	13.5	0
189	321	13.6	0
189	321	13.7	0
189	321	13.8	0
189	321	13.9	0
189	321	14	0
189	321	14.1	0
189	321	14.2	0
189	321	14.3	0
189	321	14.4	0
189	321	14.5	0
189	321	14.6	0
189	321	14.7	0
189	321	14.8	0
189	321	14.9	0
189	321	15	0
189	560	15.1	8000
189	560	15.2	0
189	560	15.3	0
189	560	15.4	0
189	560	15.5	0
189	560	15.6	0
189	560	15.7	0
189	560	15.8	0
189	560	15.9	0
189	560	16	0
189	560	16.1	0
189	560	16.2	0
189	560	16.3	0
189	560	16.4	0
189	560	16.5	0
189	560	16.6	0
189	560	16.7	0
189	560	16.8	0
189	560	16.9	0
189	560	17	0
189	560	17.1	0
189	560	17.2	0
189	560	17.3	0
189	560	17.4	0
189	560	17.5	0
189	560	17.6	0
189	560	17.7	0
189	560	17.8	0
189	560	17.9	0
189	560	18	0
189	560	18.1	0
189	560	18.2	0
189	560	18.3	0
189	560	18.4	0
189	560	18.5	0
189	560	18.6	0
189	560	18.7	0
189	560	18.8	0
189	560	18.9	0
189	560	19	0
189	560	19.1	0
189	560	19.2	0
189	560	19.3	0
189	560	19.4	0
189	560	19.5	0
189	560	19.6	0
189	560	19.7	0
189	560	19.8	0
189	560	19.9	0
189	560	20	0
189	560	20.1	0
189	560	20.2	0
189	560	20.3	0
189	560	20.4	0
189	560	20.5	0
189	560	20.6	0
189	560	20.7	0
189	560	20.8	0
189	560	20.9	0
189	560	21	0
189	560	21.1	0
189	560	21.2	0
189	560	21.3	0
189	560	21.4	0
189	560	21.5	0
189	560	21.6	0
189	560	21.7	0
189	560	21.8	0
189	560	21.9	0
189	560	22	0
189	560	22.1	0
189	560	22.2	0
189	560	22.3	0
189	560	22.4	0
189	560	22.5	0
189	560	22.6	0
189	560	22.7	0
189	560	22.8	0
189	560	22.9	0
189	560	23	0
189	560	23.1	0
189	560	23.2	0
189	560	23.3	0
189	560	23.4	0
189	560	23.5	0
189	560	23.6	0
189	560	23.7	0
189	560	23.8	0
189	560	23.9	0
189	560	24	0
189	560	24.1	0
189	560	24.2	0
189	560	24.3	0
189	560	24.4	0
189	560	24.5	0
189	560	24.6	0
189	560	24.7	0
189	560	24.8	0
189	560	24.9	0
189	560	25	0
189	802	25.1	8000
189	802	25.2	0
189	802	25.3	0
189	802	25.4	0
189	802	25.5	0
189	802	25.6	0
189	802	25.7	0
189	802	25.8	0
189	802	25.9	0
189	802	26	0
189	802	26.1	0
189	802	26.2	0
189	802	26.3	0
189	802	26.4	0
189	802	26.5	0
189	802	26.6	0
189	802	26.7	0
189	802	26.8	0
189	802	26.9	0
189	802	27	0
189	802	27.1	0
189	802	27.2	0
189	802	27.3	0
189	802	27.4	0
189	802	27.5	0
189	802	27.6	0
189	802	27.7	0
189	802	27.8	0
189	802	27.9	0
189	802	28	0
189	802	28.1	0
189	802	28.2	0
189	802	28.3	0
189	802	28.4	0
189	802	28.5	0
189	802	28.6	0
189	802	28.7	0
189	802	28.8	0
189	802	28.9	0
189	802	29	0
189	802	29.1	0
189	802	29.2	0
189	802	29.3	0
189	802	29.4	0
189	802	29.5	0
189	802	29.6	0
189	802	29.7	0
189	802	29.8	0
189	802	29.9	0
189	802	30	0
189	802	30.1	0
189	802	30.2	0
189	802	30.3	0
189	802	30.4	0
189	802	30.5	0
189	802	30.6	0
189	802	30.7	0
189	802	30.8	0
189	802	30.9	0
189	802	31	0
189	802	31.1	0
189	802	31.2	0
189	802	31.3	0
189	802	31.4	0
189	802	31.5	0
189	802	31.6	0
189	802	31.7	0
189	802	31.8	0
189	802	31.9	0
189	802	32	0
189	802	32.1	0
189	802	32.2	0
189	802	32.3	0
189	802	32.4	0
189	802	32.5	0
189	802	32.6	0
189	802	32.7	0
189	802	32.8	0
189	802	32.9	0
189	802	33	0
189	802	33.1	0
189	802	33.2	0
189	802	33.3	0
189	802	33.4	0
189	802	33.5	0
189	802	33.6	0
189	802	33.7	0
189	802	33.8	0
189	802	33.9	0
189	802	34	0
189	802	34.1	0
189	802	34.2	0
189	802	34.3	0
189	802	34.4	0
189	802	34.5	0
189	802	34.6	0
189	802	34.7	0
189	802	34.8	0
189	802	34.9	0
189	802	35	0
189	890	35.1	8000
189	890	35.2	0
189	890	35.3	0
189	890	35.4	0
189	890	35.5	0
189	890	35.6	0
189	890	35.7	0
189	890	35.8	0
189	890	35.9	0
189	890	36	0
189	890	36.1	0
189	890	36.2	0
189	890	36.3	0
189	890	36.4	0
189	890	36.5	0
189	890	36.6	0
189	890	36.7	0
189	890	36.8	0
189	890	36.9	0
189	890	37	0
189	890	37.1	0
189	890	37.2	0
189	890	37.3	0
189	890	37.4	0
189	890	37.5	0
189	890	37.6	0
189	890	37.7	0
189	890	37.8	0
189	890	37.9	0
189	890	38	0
189	890	38.1	0
189	890	38.2	0
189	890	38.3	0
189	890	38.4	0
189	890	38.5	0
189	890	38.6	0
189	890	38.7	0
189	890	38.8	0
189	890	38.9	0
189	890	39	0
189	890	39.1	0
189	890	39.2	0
189	890	39.3	0
189	890	39.4	0
189	890	39.5	0
189	890	39.6	0
189	890	39.7	0
189	890	39.8	0
189	890	39.9	0
189	890	40	0
189	890	40.1	0
189	890	40.2	0
189	890	40.3	0
189	890	40.4	0
189	890	40.5	0
189	890	40.6	0
189	890	40.7	0
189	890	40.8	0
189	890	40.9	0
189	890	41	0
189	890	41.1	0
188	321	15.000152900203	100
188	560	25.000152813892	100
188	802	35.000152720336	100
270	580	25.000152889916	158
270	774	35.000152520501	158
274	580	25.000152889916	130
274	774	35.000152520501	130
273	580	25.000152889916	158
273	774	35.000152520501	158
272	580	25.000152889916	158
272	774	35.000152520501	158
271	580	25.000152889916	158
271	774	35.000152520501	158
210	368	18.1	15
209	368	18.1	1
209	478	25.000000889916	3
209	579	25.000152889916	1
209	712	35.000000520501	3
209	773	35.000152520501	1
207	368	18.1	0
207	368	18.1	0
207	368	18.1	2
208	368	18.1	3
275	583	25.000152889916	108
275	777	35.000152520501	108
276	583	25.000152889916	1
276	777	35.000152520501	2
279	584	25.000152889916	0.000152889916
279	778	35.000152520501	0.000152520501
278	584	0.1	0
278	584	0.2	0
278	584	0.3	0
278	584	0.4	0
278	584	0.5	0
278	584	0.6	0
278	584	0.7	0
278	584	0.8	0
278	584	0.9	0
278	584	1	0
278	584	1.1	0
278	584	1.2	0
278	584	1.3	0
278	584	1.4	0
278	584	1.5	0
278	584	1.6	0
278	584	1.7	0
278	584	1.8	0
278	584	1.9	0
278	584	2	0
278	584	2.1	0
278	584	2.2	0
278	584	2.3	0
278	584	2.4	0
278	584	2.5	0
278	584	2.6	0
278	584	2.7	0
278	584	2.8	0
278	584	2.9	0
278	584	3	0
278	584	3.1	0
278	584	3.2	0
278	584	3.3	0
278	584	3.4	0
278	584	3.5	0
278	584	3.6	0
278	584	3.7	0
278	584	3.8	0
278	584	3.9	0
278	584	4	0
278	584	4.1	0
278	584	4.2	0
278	584	4.3	0
278	584	4.4	0
278	584	4.5	0
278	584	4.6	0
278	584	4.7	0
278	584	4.8	0
278	584	4.9	0
278	584	5	0
278	584	5.1	0
278	584	5.2	0
278	584	5.3	0
278	584	5.4	0
278	584	5.5	0
278	584	5.6	0
278	584	5.7	0
278	584	5.8	0
278	584	5.9	0
278	584	6	0
278	584	6.1	0
278	584	6.2	0
278	584	6.3	0
278	584	6.4	0
278	584	6.5	0
278	584	6.6	0
278	584	6.7	0
278	584	6.8	0
278	584	6.9	0
278	584	7	0
278	584	7.1	0
278	584	7.2	0
278	584	7.3	0
278	584	7.4	0
278	584	7.5	0
278	584	7.6	0
278	584	7.7	0
278	584	7.8	0
278	584	7.9	0
278	584	8	0
278	584	8.1	0
278	584	8.2	0
278	584	8.3	0
278	584	8.4	0
278	584	8.5	0
278	584	8.6	0
278	584	8.7	0
278	584	8.8	0
278	584	8.9	0
278	584	9	0
278	584	9.1	0
278	584	9.2	0
278	584	9.3	0
278	584	9.4	0
278	584	9.5	0
278	584	9.6	0
278	584	9.7	0
278	584	9.8	0
278	584	9.9	0
278	584	10	0
278	584	10.1	0
278	584	10.2	0
278	584	10.3	0
278	584	10.4	0
278	584	10.5	0
278	584	10.6	0
278	584	10.7	0
278	584	10.8	0
278	584	10.9	0
278	584	11	0
278	584	11.1	0
278	584	11.2	0
278	584	11.3	0
278	584	11.4	0
278	584	11.5	0
278	584	11.6	0
278	584	11.7	0
278	584	11.8	0
278	584	11.9	0
278	584	12	0
278	584	12.1	0
278	584	12.2	0
278	584	12.3	0
278	584	12.4	0
278	584	12.5	0
278	584	12.6	0
278	584	12.7	0
278	584	12.8	0
278	584	12.9	0
278	584	13	0
278	584	13.1	0
278	584	13.2	0
278	584	13.3	0
278	584	13.4	0
278	584	13.5	0
278	584	13.6	0
278	584	13.7	0
278	584	13.8	0
278	584	13.9	0
278	584	14	0
278	584	14.1	0
278	584	14.2	0
278	584	14.3	0
278	584	14.4	0
278	584	14.5	0
278	584	14.6	0
278	584	14.7	0
278	584	14.8	0
278	584	14.9	0
278	584	15	0
278	584	15.1	0
278	584	15.2	0
278	584	15.3	0
278	584	15.4	0
278	584	15.5	0
278	584	15.6	0
278	584	15.7	0
278	584	15.8	0
278	584	15.9	0
278	584	16	0
278	584	16.1	0
278	584	16.2	0
278	584	16.3	0
278	584	16.4	0
278	584	16.5	0
278	584	16.6	0
278	584	16.7	0
278	584	16.8	0
278	584	16.9	0
278	584	17	0
278	584	17.1	0
278	584	17.2	0
278	584	17.3	0
278	584	17.4	0
278	584	17.5	0
278	584	17.6	0
278	584	17.7	0
278	584	17.8	0
278	584	17.9	0
278	584	18	0
278	584	18.1	0
278	584	18.2	0
278	584	18.3	0
278	584	18.4	0
278	584	18.5	0
278	584	18.6	0
278	584	18.7	0
278	584	18.8	0
278	584	18.9	0
278	584	19	0
278	584	19.1	0
278	584	19.2	0
278	584	19.3	0
278	584	19.4	0
278	584	19.5	0
278	584	19.6	0
278	584	19.7	0
278	584	19.8	0
278	584	19.9	0
278	584	20	0
278	584	20.1	0
278	584	20.2	0
278	584	20.3	0
278	584	20.4	0
278	584	20.5	0
278	584	20.6	0
278	584	20.7	0
278	584	20.8	0
278	584	20.9	0
278	584	21	0
278	584	21.1	0
278	584	21.2	0
278	584	21.3	0
278	584	21.4	0
[...]
248	1021	37.1	0
248	1021	37.2	0
248	1021	37.3	0
248	1021	37.4	0
248	1021	37.5	0
248	1021	37.6	0
248	1021	37.7	0
248	1021	37.8	0
248	1021	37.9	0
248	1021	38	0
248	1021	38.1	0
248	1021	38.2	0
248	1021	38.3	0
248	1021	38.4	0
248	1021	38.5	0
248	1021	38.6	0
248	1021	38.7	0
248	1021	38.8	0
248	1021	38.9	0
248	1021	39	0
248	1021	39.1	0
248	1021	39.2	0
248	1021	39.3	0
248	1021	39.4	0
248	1021	39.5	0
248	1021	39.6	0
248	1021	39.7	0
248	1021	39.8	0
248	1021	39.9	0
248	1021	40	0
248	1021	40.1	0
248	1021	40.2	0
248	1021	40.3	0
248	1021	40.4	0
248	1021	40.5	0
248	1021	40.6	0
248	1021	40.7	0
248	1021	40.8	0
248	1021	40.9	0
248	1021	41	0
248	1021	41.1	0
248	1021	41.2	0
248	1021	41.3	0
248	1021	41.4	0
248	1021	41.5	0
248	1021	41.6	0
248	1021	41.7	0
248	1021	41.8	0
248	1021	41.9	0
248	1021	42	0
248	1021	42.1	0
248	1021	42.2	0
248	1021	42.3	0
248	1021	42.4	0
248	1021	42.5	0
248	1021	42.6	0
248	1021	42.7	0
248	1021	42.8	0
248	1021	42.9	0
248	1021	43	0
248	1021	43.1	0
248	1021	43.2	0
248	1021	43.3	0
248	1021	43.4	0
248	1021	43.5	0
248	1021	43.6	0
248	1021	43.7	0
248	1021	43.8	0
248	1021	43.9	0
248	1021	44	0
248	1021	44.1	0
248	1021	44.2	0
248	1021	44.3	0
248	1021	44.4	0
248	1021	44.5	0
248	1021	44.6	0
248	1021	44.7	0
248	1021	44.8	0
248	1021	44.9	0
248	1021	45	0
248	1210	45.1	8000
248	1210	45.2	0
248	1210	45.3	0
248	1210	45.4	0
248	1210	45.5	0
248	1210	45.6	0
248	1210	45.7	0
248	1210	45.8	0
248	1210	45.9	0
248	1210	46	0
248	1210	46.1	0
248	1210	46.2	0
248	1210	46.3	0
248	1210	46.4	0
248	1210	46.5	0
248	1210	46.6	0
248	1210	46.7	0
248	1210	46.8	0
248	1210	46.9	0
248	1210	47	0
248	1210	47.1	0
248	1210	47.2	0
248	1210	47.3	0
248	1210	47.4	0
248	1210	47.5	0
248	1210	47.6	0
248	1210	47.7	0
248	1210	47.8	0
248	1210	47.9	0
248	1210	48	0
248	1210	48.1	0
248	1210	48.2	0
248	1210	48.3	0
248	1210	48.4	0
248	1210	48.5	0
248	1210	48.6	0
248	1210	48.7	0
248	1210	48.8	0
248	1210	48.9	0
248	1210	49	0
248	1210	49.1	0
248	1210	49.2	0
248	1210	49.3	0
248	1210	49.4	0
248	1210	49.5	0
248	1210	49.6	0
248	1210	49.7	0
248	1210	49.8	0
248	1210	49.9	0
248	1210	50	0
248	1210	50.1	0
248	1210	50.2	0
248	1210	50.3	0
248	1210	50.4	0
248	1210	50.5	0
248	1210	50.6	0
248	1210	50.7	0
248	1210	50.8	0
248	1210	50.9	0
248	1210	51	0
248	1210	51.1	0
248	1210	51.2	0
248	1210	51.3	0
248	1210	51.4	0
248	1210	51.5	0
248	1210	51.6	0
248	1210	51.7	0
248	1210	51.8	0
248	1210	51.9	0
248	1210	52	0
248	1210	52.1	0
248	1210	52.2	0
248	1210	52.3	0
248	1210	52.4	0
248	1210	52.5	0
248	1210	52.6	0
248	1210	52.7	0
248	1210	52.8	0
248	1210	52.9	0
248	1210	53	0
248	1210	53.1	0
248	1210	53.2	0
248	1210	53.3	0
248	1210	53.4	0
248	1210	53.5	0
248	1210	53.6	0
248	1210	53.7	0
248	1210	53.8	0
248	1210	53.9	0
248	1210	54	0
248	1210	54.1	0
248	1210	54.2	0
248	1210	54.3	0
248	1210	54.4	0
248	1210	54.5	0
248	1210	54.6	0
248	1210	54.7	0
248	1210	54.8	0
248	1210	54.9	0
248	1210	55	0
248	1395	55.1	8000
248	1395	55.2	0
248	1395	55.3	0
248	1395	55.4	0
248	1395	55.5	0
248	1395	55.6	0
248	1395	55.7	0
248	1395	55.8	0
248	1395	55.9	0
248	1395	56	0
248	1395	56.1	0
248	1395	56.2	0
248	1395	56.3	0
248	1395	56.4	0
248	1395	56.5	0
248	1395	56.6	0
248	1395	56.7	0
248	1395	56.8	0
248	1395	56.9	0
248	1395	57	0
248	1395	57.1	0
248	1395	57.2	0
248	1395	57.3	0
248	1395	57.4	0
248	1395	57.5	0
248	1395	57.6	0
248	1395	57.7	0
248	1395	57.8	0
248	1395	57.9	0
248	1395	58	0
248	1395	58.1	0
248	1395	58.2	0
248	1395	58.3	0
248	1395	58.4	0
248	1395	58.5	0
248	1395	58.6	0
248	1395	58.7	0
248	1395	58.8	0
248	1395	58.9	0
248	1395	59	0
248	1395	59.1	0
248	1395	59.2	0
248	1395	59.3	0
248	1395	59.4	0
248	1395	59.5	0
248	1395	59.6	0
248	1395	59.7	0
248	1395	59.8	0
248	1395	59.9	0
248	1395	60	0
248	1395	60.1	0
248	1395	60.2	0
248	1395	60.3	0
248	1395	60.4	0
248	1395	60.5	0
248	1395	60.6	0
248	1395	60.7	0
248	1395	60.8	0
248	1395	60.9	0
248	1395	61	0
248	1395	61.1	0
248	1395	61.2	0
248	1395	61.3	0
248	1395	61.4	0
248	1395	61.5	0
248	1395	61.6	0
248	1395	61.7	0
248	1395	61.8	0
248	1395	61.9	0
248	1395	62	0
248	1395	62.1	0
248	1395	62.2	0
248	1395	62.3	0
248	1395	62.4	0
248	1395	62.5	0
248	1395	62.6	0
248	1395	62.7	0
248	1395	62.8	0
248	1395	62.9	0
248	1395	63	0
248	1395	63.1	0
248	1395	63.2	0
248	1395	63.3	0
248	1395	63.4	0
248	1395	63.5	0
248	1395	63.6	0
248	1395	63.7	0
248	1395	63.8	0
248	1395	63.9	0
248	1395	64	0
248	1395	64.1	0
248	1395	64.2	0
248	1395	64.3	0
248	1395	64.4	0
248	1395	64.5	0
248	1395	64.6	0
248	1395	64.7	0
248	1395	64.8	0
248	1395	64.9	0
248	1395	65	0
248	1567	65.1	8000
248	1567	65.2	0
248	1567	65.3	0
248	1567	65.4	0
248	1567	65.5	0
248	1567	65.6	0
248	1567	65.7	0
248	1567	65.8	0
248	1567	65.9	0
248	1567	66	0
248	1567	66.1	0
248	1567	66.2	0
248	1567	66.3	0
248	1567	66.4	0
248	1567	66.5	0
248	1567	66.6	0
248	1567	66.7	0
248	1567	66.8	0
248	1567	66.9	0
248	1567	67	0
248	1567	67.1	0
248	1567	67.2	0
248	1567	67.3	0
248	1567	67.4	0
248	1567	67.5	0
248	1567	67.6	0
248	1567	67.7	0
248	1567	67.8	0
248	1567	67.9	0
248	1567	68	0
248	1567	68.1	0
248	1567	68.2	0
248	1567	68.3	0
248	1567	68.4	0
248	1567	68.5	0
248	1567	68.6	0
248	1567	68.7	0
248	1567	68.8	0
248	1567	68.9	0
248	1567	69	0
248	1567	69.1	0
248	1567	69.2	0
248	1567	69.3	0
248	1567	69.4	0
248	1567	69.5	0
248	1567	69.6	0
248	1567	69.7	0
248	1567	69.8	0
248	1567	69.9	0
248	1567	70	0
248	1567	70.1	0
248	1567	70.2	0
248	1567	70.3	0
248	1567	70.4	0
248	1567	70.5	0
248	1567	70.6	0
248	1567	70.7	0
248	1567	70.8	0
248	1567	70.9	0
248	1567	71	0
248	1567	71.1	0
248	1567	71.2	0
248	1567	71.3	0
248	1567	71.4	0
248	1567	71.5	0
248	1567	71.6	0
248	1567	71.7	0
248	1567	71.8	0
248	1567	71.9	0
248	1567	72	0
248	1567	72.1	0
248	1567	72.2	0
248	1567	72.3	0
248	1567	72.4	0
248	1567	72.5	0
248	1567	72.6	0
248	1567	72.7	0
248	1567	72.8	0
248	1567	72.9	0
248	1567	73	0
248	1567	73.1	0
248	1567	73.2	0
248	1567	73.3	0
248	1567	73.4	0
248	1567	73.5	0
248	1567	73.6	0
248	1567	73.7	0
248	1567	73.8	0
248	1567	73.9	0
248	1567	74	0
248	1567	74.1	0
248	1567	74.2	0
248	1567	74.3	0
248	1567	74.4	0
248	1567	74.5	0
248	1567	74.6	0
248	1567	74.7	0
248	1567	74.8	0
248	1567	74.9	0
248	1567	75	0
248	1567	75.1	0
248	1567	75.2	0
248	1567	75.3	0
248	1567	75.4	0
248	1567	75.5	0
248	1567	75.6	0
248	1567	75.7	0
248	1567	75.8	0
248	1567	75.9	0
248	1567	76	0
248	1567	76.1	0
248	1567	76.2	0
248	1567	76.3	0
248	1567	76.4	0
248	1567	76.5	0
248	1567	76.6	0
248	1567	76.7	0
248	1567	76.8	0
248	1567	76.9	0
248	1567	77	0
248	1567	77.1	0
248	1567	77.2	0
248	1567	77.3	0
248	1567	77.4	0
248	1567	77.5	0
248	1567	77.6	0
248	1567	77.7	0
248	1567	77.8	0
248	1567	77.9	0
248	1567	78	0
248	1567	78.1	0
248	1567	78.2	0
248	1567	78.3	0
248	1567	78.4	0
248	1567	78.5	0
248	1567	78.6	0
248	1567	78.7	0
248	1567	78.8	0
248	1567	78.9	0
248	1567	79	0
248	1567	79.1	0
248	1567	79.2	0
248	1567	79.3	0
248	1567	79.4	0
248	1567	79.5	0
248	1567	79.6	0
248	1567	79.7	0
248	1567	79.8	0
248	1567	79.9	0
248	1567	80	0
249	518	25.000152441162	0.000152441162
249	814	35.000152747444	0.000152747444
249	1021	45.000153004994	0.000153004994
249	1210	55.000152888655	0.000152888655
249	1395	65.000152647728	0.000152647728
250	520	25.000152452169	158
250	822	35.000152932837	158
250	1409	65.000152850769	158
251	520	25.000152452169	158
251	822	35.000152932837	158
251	1409	65.000152850769	158
252	520	25.000152452169	158
252	822	35.000152932837	158
252	1409	65.000152850769	158
253	520	25.000152452169	158
253	822	35.000152932837	158
253	1409	65.000152850769	158
254	520	25.000152452169	130
254	822	35.000152932837	130
254	1409	65.000152850769	130
255	523	25.000152452169	108
255	825	35.000152932837	108
255	1412	65.000152850769	108
256	523	25.000152452169	1
256	825	35.000152932837	2
256	1412	65.000152850769	3
257	524	25.000152452169	100
257	826	35.000152932837	100
257	1413	65.000152850769	100
258	524	0.1	0
258	524	0.2	0
258	524	0.3	0
258	524	0.4	0
258	524	0.5	0
258	524	0.6	0
258	524	0.7	0
258	524	0.8	0
258	524	0.9	0
258	524	1	0
258	524	1.1	0
258	524	1.2	0
258	524	1.3	0
258	524	1.4	0
258	524	1.5	0
258	524	1.6	0
258	524	1.7	0
258	524	1.8	0
258	524	1.9	0
258	524	2	0
258	524	2.1	0
258	524	2.2	0
258	524	2.3	0
258	524	2.4	0
258	524	2.5	0
258	524	2.6	0
258	524	2.7	0
258	524	2.8	0
258	524	2.9	0
258	524	3	0
258	524	3.1	0
258	524	3.2	0
258	524	3.3	0
258	524	3.4	0
258	524	3.5	0
258	524	3.6	0
258	524	3.7	0
258	524	3.8	0
258	524	3.9	0
258	524	4	0
258	524	4.1	0
258	524	4.2	0
258	524	4.3	0
258	524	4.4	0
258	524	4.5	0
258	524	4.6	0
258	524	4.7	0
258	524	4.8	0
258	524	4.9	0
258	524	5	0
258	524	5.1	0
258	524	5.2	0
258	524	5.3	0
258	524	5.4	0
258	524	5.5	0
258	524	5.6	0
258	524	5.7	0
258	524	5.8	0
258	524	5.9	0
258	524	6	0
258	524	6.1	0
258	524	6.2	0
258	524	6.3	0
258	524	6.4	0
258	524	6.5	0
258	524	6.6	0
258	524	6.7	0
258	524	6.8	0
258	524	6.9	0
258	524	7	0
258	524	7.1	0
258	524	7.2	0
258	524	7.3	0
258	524	7.4	0
258	524	7.5	0
258	524	7.6	0
258	524	7.7	0
258	524	7.8	0
258	524	7.9	0
258	524	8	0
258	524	8.1	0
258	524	8.2	0
258	524	8.3	0
258	524	8.4	0
258	524	8.5	0
258	524	8.6	0
258	524	8.7	0
258	524	8.8	0
258	524	8.9	0
258	524	9	0
258	524	9.1	0
258	524	9.2	0
258	524	9.3	0
258	524	9.4	0
258	524	9.5	0
258	524	9.6	0
258	524	9.7	0
258	524	9.8	0
258	524	9.9	0
258	524	10	0
258	524	10.1	0
258	524	10.2	0
258	524	10.3	0
258	524	10.4	0
258	524	10.5	0
258	524	10.6	0
258	524	10.7	0
258	524	10.8	0
258	524	10.9	0
258	524	11	0
258	524	11.1	0
258	524	11.2	0
258	524	11.3	0
258	524	11.4	0
258	524	11.5	0
258	524	11.6	0
258	524	11.7	0
258	524	11.8	0
258	524	11.9	0
258	524	12	0
258	524	12.1	0
258	524	12.2	0
258	524	12.3	0
258	524	12.4	0
258	524	12.5	0
258	524	12.6	0
258	524	12.7	0
258	524	12.8	0
258	524	12.9	0
258	524	13	0
258	524	13.1	0
258	524	13.2	0
258	524	13.3	0
258	524	13.4	0
258	524	13.5	0
258	524	13.6	0
258	524	13.7	0
258	524	13.8	0
258	524	13.9	0
258	524	14	0
258	524	14.1	0
258	524	14.2	0
258	524	14.3	0
258	524	14.4	0
258	524	14.5	0
258	524	14.6	0
258	524	14.7	0
258	524	14.8	0
258	524	14.9	0
258	524	15	0
258	524	15.1	0
258	524	15.2	0
258	524	15.3	0
258	524	15.4	0
258	524	15.5	0
258	524	15.6	0
258	524	15.7	0
258	524	15.8	0
258	524	15.9	0
258	524	16	0
258	524	16.1	0
258	524	16.2	0
258	524	16.3	0
258	524	16.4	0
258	524	16.5	0
258	524	16.6	0
258	524	16.7	0
258	524	16.8	0
258	524	16.9	0
258	524	17	0
258	524	17.1	0
258	524	17.2	0
258	524	17.3	0
258	524	17.4	0
258	524	17.5	0
258	524	17.6	0
258	524	17.7	0
258	524	17.8	0
258	524	17.9	0
258	524	18	0
258	524	18.1	0
258	524	18.2	0
258	524	18.3	0
258	524	18.4	0
258	524	18.5	0
258	524	18.6	0
258	524	18.7	0
258	524	18.8	0
258	524	18.9	0
258	524	19	0
258	524	19.1	0
258	524	19.2	0
258	524	19.3	0
258	524	19.4	0
258	524	19.5	0
258	524	19.6	0
258	524	19.7	0
258	524	19.8	0
258	524	19.9	0
258	524	20	0
258	524	20.1	0
258	524	20.2	0
258	524	20.3	0
258	524	20.4	0
258	524	20.5	0
258	524	20.6	0
258	524	20.7	0
258	524	20.8	0
258	524	20.9	0
258	524	21	0
258	524	21.1	0
258	524	21.2	0
258	524	21.3	0
258	524	21.4	0
258	524	21.5	0
258	524	21.6	0
258	524	21.7	0
258	524	21.8	0
258	524	21.9	0
258	524	22	0
258	524	22.1	0
258	524	22.2	0
258	524	22.3	0
258	524	22.4	0
258	524	22.5	0
258	524	22.6	0
258	524	22.7	0
258	524	22.8	0
258	524	22.9	0
258	524	23	0
258	524	23.1	0
258	524	23.2	0
258	524	23.3	0
258	524	23.4	0
258	524	23.5	0
258	524	23.6	0
258	524	23.7	0
258	524	23.8	0
258	524	23.9	0
258	524	24	0
258	524	24.1	0
258	524	24.2	0
258	524	24.3	0
258	524	24.4	0
258	524	24.5	0
258	524	24.6	0
258	524	24.7	0
258	524	24.8	0
258	524	24.9	0
258	524	25	0
258	826	25.1	8000
258	826	25.2	0
258	826	25.3	0
258	826	25.4	0
258	826	25.5	0
258	826	25.6	0
258	826	25.7	0
258	826	25.8	0
258	826	25.9	0
258	826	26	0
258	826	26.1	0
258	826	26.2	0
258	826	26.3	0
258	826	26.4	0
258	826	26.5	0
258	826	26.6	0
258	826	26.7	0
258	826	26.8	0
258	826	26.9	0
258	826	27	0
258	826	27.1	0
258	826	27.2	0
258	826	27.3	0
258	826	27.4	0
258	826	27.5	0
258	826	27.6	0
258	826	27.7	0
258	826	27.8	0
258	826	27.9	0
258	826	28	0
258	826	28.1	0
258	826	28.2	0
258	826	28.3	0
258	826	28.4	0
258	826	28.5	0
258	826	28.6	0
258	826	28.7	0
258	826	28.8	0
258	826	28.9	0
258	826	29	0
258	826	29.1	0
258	826	29.2	0
258	826	29.3	0
258	826	29.4	0
258	826	29.5	0
258	826	29.6	0
258	826	29.7	0
258	826	29.8	0
258	826	29.9	0
258	826	30	0
258	826	30.1	0
258	826	30.2	0
258	826	30.3	0
258	826	30.4	0
258	826	30.5	0
258	826	30.6	0
258	826	30.7	0
258	826	30.8	0
258	826	30.9	0
258	826	31	0
258	826	31.1	0
258	826	31.2	0
258	826	31.3	0
258	826	31.4	0
258	826	31.5	0
258	826	31.6	0
258	826	31.7	0
258	826	31.8	0
258	826	31.9	0
258	826	32	0
258	826	32.1	0
258	826	32.2	0
258	826	32.3	0
258	826	32.4	0
258	826	32.5	0
258	826	32.6	0
258	826	32.7	0
258	826	32.8	0
258	826	32.9	0
258	826	33	0
258	826	33.1	0
258	826	33.2	0
258	826	33.3	0
258	826	33.4	0
258	826	33.5	0
258	826	33.6	0
258	826	33.7	0
258	826	33.8	0
258	826	33.9	0
258	826	34	0
258	826	34.1	0
258	826	34.2	0
258	826	34.3	0
258	826	34.4	0
258	826	34.5	0
258	826	34.6	0
258	826	34.7	0
258	826	34.8	0
258	826	34.9	0
258	826	35	0
258	1413	35.1	8000
258	1413	35.2	0
258	1413	35.3	0
258	1413	35.4	0
258	1413	35.5	0
258	1413	35.6	0
258	1413	35.7	0
258	1413	35.8	0
258	1413	35.9	0
258	1413	36	0
258	1413	36.1	0
258	1413	36.2	0
258	1413	36.3	0
258	1413	36.4	0
258	1413	36.5	0
258	1413	36.6	0
258	1413	36.7	0
258	1413	36.8	0
258	1413	36.9	0
258	1413	37	0
258	1413	37.1	0
258	1413	37.2	0
258	1413	37.3	0
258	1413	37.4	0
258	1413	37.5	0
258	1413	37.6	0
258	1413	37.7	0
258	1413	37.8	0
258	1413	37.9	0
258	1413	38	0
258	1413	38.1	0
258	1413	38.2	0
258	1413	38.3	0
258	1413	38.4	0
258	1413	38.5	0
258	1413	38.6	0
258	1413	38.7	0
258	1413	38.8	0
258	1413	38.9	0
258	1413	39	0
258	1413	39.1	0
258	1413	39.2	0
258	1413	39.3	0
258	1413	39.4	0
258	1413	39.5	0
258	1413	39.6	0
258	1413	39.7	0
258	1413	39.8	0
258	1413	39.9	0
258	1413	40	0
258	1413	40.1	0
258	1413	40.2	0
258	1413	40.3	0
258	1413	40.4	0
258	1413	40.5	0
258	1413	40.6	0
258	1413	40.7	0
258	1413	40.8	0
258	1413	40.9	0
258	1413	41	0
258	1413	41.1	0
258	1413	41.2	0
258	1413	41.3	0
258	1413	41.4	0
258	1413	41.5	0
258	1413	41.6	0
258	1413	41.7	0
258	1413	41.8	0
258	1413	41.9	0
258	1413	42	0
258	1413	42.1	0
258	1413	42.2	0
258	1413	42.3	0
258	1413	42.4	0
258	1413	42.5	0
258	1413	42.6	0
258	1413	42.7	0
258	1413	42.8	0
258	1413	42.9	0
258	1413	43	0
258	1413	43.1	0
258	1413	43.2	0
258	1413	43.3	0
258	1413	43.4	0
258	1413	43.5	0
258	1413	43.6	0
258	1413	43.7	0
258	1413	43.8	0
258	1413	43.9	0
258	1413	44	0
258	1413	44.1	0
258	1413	44.2	0
258	1413	44.3	0
258	1413	44.4	0
258	1413	44.5	0
258	1413	44.6	0
258	1413	44.7	0
258	1413	44.8	0
258	1413	44.9	0
258	1413	45	0
258	1413	45.1	0
258	1413	45.2	0
258	1413	45.3	0
258	1413	45.4	0
258	1413	45.5	0
258	1413	45.6	0
258	1413	45.7	0
258	1413	45.8	0
258	1413	45.9	0
258	1413	46	0
258	1413	46.1	0
258	1413	46.2	0
258	1413	46.3	0
258	1413	46.4	0
258	1413	46.5	0
258	1413	46.6	0
258	1413	46.7	0
258	1413	46.8	0
258	1413	46.9	0
258	1413	47	0
258	1413	47.1	0
258	1413	47.2	0
258	1413	47.3	0
258	1413	47.4	0
258	1413	47.5	0
258	1413	47.6	0
258	1413	47.7	0
258	1413	47.8	0
258	1413	47.9	0
258	1413	48	0
258	1413	48.1	0
258	1413	48.2	0
258	1413	48.3	0
258	1413	48.4	0
258	1413	48.5	0
258	1413	48.6	0
258	1413	48.7	0
258	1413	48.8	0
258	1413	48.9	0
258	1413	49	0
258	1413	49.1	0
258	1413	49.2	0
258	1413	49.3	0
258	1413	49.4	0
258	1413	49.5	0
258	1413	49.6	0
258	1413	49.7	0
258	1413	49.8	0
258	1413	49.9	0
258	1413	50	0
258	1413	50.1	0
258	1413	50.2	0
258	1413	50.3	0
258	1413	50.4	0
258	1413	50.5	0
258	1413	50.6	0
258	1413	50.7	0
258	1413	50.8	0
258	1413	50.9	0
258	1413	51	0
258	1413	51.1	0
258	1413	51.2	0
258	1413	51.3	0
258	1413	51.4	0
258	1413	51.5	0
258	1413	51.6	0
258	1413	51.7	0
258	1413	51.8	0
258	1413	51.9	0
258	1413	52	0
258	1413	52.1	0
258	1413	52.2	0
258	1413	52.3	0
258	1413	52.4	0
258	1413	52.5	0
258	1413	52.6	0
258	1413	52.7	0
258	1413	52.8	0
258	1413	52.9	0
258	1413	53	0
258	1413	53.1	0
258	1413	53.2	0
258	1413	53.3	0
258	1413	53.4	0
258	1413	53.5	0
258	1413	53.6	0
258	1413	53.7	0
258	1413	53.8	0
258	1413	53.9	0
258	1413	54	0
258	1413	54.1	0
258	1413	54.2	0
258	1413	54.3	0
258	1413	54.4	0
258	1413	54.5	0
258	1413	54.6	0
258	1413	54.7	0
258	1413	54.8	0
258	1413	54.9	0
258	1413	55	0
258	1413	55.1	0
258	1413	55.2	0
258	1413	55.3	0
258	1413	55.4	0
258	1413	55.5	0
258	1413	55.6	0
258	1413	55.7	0
258	1413	55.8	0
258	1413	55.9	0
258	1413	56	0
258	1413	56.1	0
258	1413	56.2	0
258	1413	56.3	0
258	1413	56.4	0
258	1413	56.5	0
258	1413	56.6	0
258	1413	56.7	0
258	1413	56.8	0
258	1413	56.9	0
258	1413	57	0
258	1413	57.1	0
258	1413	57.2	0
258	1413	57.3	0
258	1413	57.4	0
258	1413	57.5	0
258	1413	57.6	0
258	1413	57.7	0
258	1413	57.8	0
258	1413	57.9	0
258	1413	58	0
258	1413	58.1	0
258	1413	58.2	0
258	1413	58.3	0
258	1413	58.4	0
258	1413	58.5	0
258	1413	58.6	0
258	1413	58.7	0
258	1413	58.8	0
258	1413	58.9	0
258	1413	59	0
258	1413	59.1	0
258	1413	59.2	0
258	1413	59.3	0
258	1413	59.4	0
258	1413	59.5	0
258	1413	59.6	0
258	1413	59.7	0
258	1413	59.8	0
258	1413	59.9	0
258	1413	60	0
258	1413	60.1	0
258	1413	60.2	0
258	1413	60.3	0
258	1413	60.4	0
258	1413	60.5	0
258	1413	60.6	0
258	1413	60.7	0
258	1413	60.8	0
258	1413	60.9	0
258	1413	61	0
258	1413	61.1	0
258	1413	61.2	0
258	1413	61.3	0
258	1413	61.4	0
258	1413	61.5	0
258	1413	61.6	0
258	1413	61.7	0
258	1413	61.8	0
258	1413	61.9	0
258	1413	62	0
258	1413	62.1	0
258	1413	62.2	0
258	1413	62.3	0
258	1413	62.4	0
258	1413	62.5	0
258	1413	62.6	0
258	1413	62.7	0
258	1413	62.8	0
258	1413	62.9	0
258	1413	63	0
258	1413	63.1	0
258	1413	63.2	0
258	1413	63.3	0
258	1413	63.4	0
258	1413	63.5	0
258	1413	63.6	0
258	1413	63.7	0
258	1413	63.8	0
258	1413	63.9	0
258	1413	64	0
258	1413	64.1	0
258	1413	64.2	0
258	1413	64.3	0
258	1413	64.4	0
258	1413	64.5	0
258	1413	64.6	0
258	1413	64.7	0
258	1413	64.8	0
258	1413	64.9	0
258	1413	65	0
258	1567	65.1	8000
258	1567	65.2	0
258	1567	65.3	0
258	1567	65.4	0
258	1567	65.5	0
258	1567	65.6	0
258	1567	65.7	0
258	1567	65.8	0
258	1567	65.9	0
258	1567	66	0
258	1567	66.1	0
258	1567	66.2	0
258	1567	66.3	0
258	1567	66.4	0
258	1567	66.5	0
258	1567	66.6	0
258	1567	66.7	0
258	1567	66.8	0
258	1567	66.9	0
258	1567	67	0
258	1567	67.1	0
258	1567	67.2	0
258	1567	67.3	0
258	1567	67.4	0
258	1567	67.5	0
258	1567	67.6	0
258	1567	67.7	0
258	1567	67.8	0
258	1567	67.9	0
258	1567	68	0
258	1567	68.1	0
258	1567	68.2	0
258	1567	68.3	0
258	1567	68.4	0
258	1567	68.5	0
258	1567	68.6	0
258	1567	68.7	0
258	1567	68.8	0
258	1567	68.9	0
258	1567	69	0
258	1567	69.1	0
258	1567	69.2	0
258	1567	69.3	0
258	1567	69.4	0
258	1567	69.5	0
258	1567	69.6	0
258	1567	69.7	0
258	1567	69.8	0
258	1567	69.9	0
258	1567	70	0
258	1567	70.1	0
258	1567	70.2	0
258	1567	70.3	0
258	1567	70.4	0
258	1567	70.5	0
258	1567	70.6	0
258	1567	70.7	0
258	1567	70.8	0
258	1567	70.9	0
258	1567	71	0
258	1567	71.1	0
258	1567	71.2	0
258	1567	71.3	0
258	1567	71.4	0
258	1567	71.5	0
258	1567	71.6	0
258	1567	71.7	0
258	1567	71.8	0
258	1567	71.9	0
258	1567	72	0
258	1567	72.1	0
258	1567	72.2	0
258	1567	72.3	0
258	1567	72.4	0
258	1567	72.5	0
258	1567	72.6	0
258	1567	72.7	0
258	1567	72.8	0
258	1567	72.9	0
258	1567	73	0
258	1567	73.1	0
258	1567	73.2	0
258	1567	73.3	0
258	1567	73.4	0
258	1567	73.5	0
258	1567	73.6	0
258	1567	73.7	0
258	1567	73.8	0
258	1567	73.9	0
258	1567	74	0
258	1567	74.1	0
258	1567	74.2	0
258	1567	74.3	0
258	1567	74.4	0
258	1567	74.5	0
258	1567	74.6	0
258	1567	74.7	0
258	1567	74.8	0
258	1567	74.9	0
258	1567	75	0
258	1567	75.1	0
258	1567	75.2	0
258	1567	75.3	0
258	1567	75.4	0
258	1567	75.5	0
258	1567	75.6	0
258	1567	75.7	0
258	1567	75.8	0
258	1567	75.9	0
258	1567	76	0
258	1567	76.1	0
258	1567	76.2	0
258	1567	76.3	0
258	1567	76.4	0
258	1567	76.5	0
258	1567	76.6	0
258	1567	76.7	0
258	1567	76.8	0
258	1567	76.9	0
258	1567	77	0
258	1567	77.1	0
258	1567	77.2	0
258	1567	77.3	0
258	1567	77.4	0
258	1567	77.5	0
258	1567	77.6	0
258	1567	77.7	0
258	1567	77.8	0
258	1567	77.9	0
258	1567	78	0
258	1567	78.1	0
258	1567	78.2	0
258	1567	78.3	0
258	1567	78.4	0
258	1567	78.5	0
258	1567	78.6	0
258	1567	78.7	0
258	1567	78.8	0
258	1567	78.9	0
258	1567	79	0
258	1567	79.1	0
258	1567	79.2	0
258	1567	79.3	0
258	1567	79.4	0
258	1567	79.5	0
258	1567	79.6	0
258	1567	79.7	0
258	1567	79.8	0
258	1567	79.9	0
258	1567	80	0
259	524	25.000152452169	0.000152452169
259	826	35.000152932837	0.000152932837
259	1413	65.000152850769	0.000152850769

