version 2
run General-0-20240403-21:22:08-10540
attr configname General
attr datetime 20240403-21:22:08
attr experiment General
attr inifile omnetpp.ini
attr iterationvars ""
attr iterationvarsf ""
attr measurement ""
attr network Scenario
attr processid 10540
attr repetition 0
attr replication #0
attr resultdir results
attr runnumber 0
attr seedset 0
param *.node[*].numApps 1
param *.node[*].app[0].typename "\"vanetquevedo.veins_inet.VeinsInetSampleApplication\""
param *.node[*].app[0].interface "\"wlan0\""
param *.node[*].wlan[0].opMode "\"p\""
param *.node[*].wlan[0].radio.typename "\"Ieee80211DimensionalRadio\""
param *.node[*].wlan[0].radio.bandName "\"5.9 GHz\""
param *.node[*].wlan[0].radio.channelNumber 3
param *.node[*].wlan[0].radio.transmitter.power 20mW
param *.node[*].wlan[0].radio.bandwidth "10 MHz"
param *.node[*].wlan[*].radio.antenna.mobility.typename "\"AttachedMobility\""
param *.node[*].wlan[*].radio.antenna.mobility.mobilityModule "\"^.^.^.^.mobility\""
param *.node[*].wlan[*].radio.antenna.mobility.offsetX -2.5m
param *.node[*].wlan[*].radio.antenna.mobility.offsetZ 1.5m
param *.node[*].wlan[*].radio.antenna.mobility.constraintAreaMinX 0m
param *.node[*].wlan[*].radio.antenna.mobility.constraintAreaMaxX 0m
param *.node[*].wlan[*].radio.antenna.mobility.constraintAreaMinY 0m
param *.node[*].wlan[*].radio.antenna.mobility.constraintAreaMaxY 0m
param *.node[*].wlan[*].radio.antenna.mobility.constraintAreaMinZ 0m
param *.node[*].wlan[*].radio.antenna.mobility.constraintAreaMaxZ 0m
param *.node[*].ipv4.routingTableModule "\"inet.routing.dymo.DymoRouting\""
param *.node[*].ipv4.configurator.typename "\"HostAutoConfigurator\""
param *.node[*].ipv4.configurator.interfaces "\"wlan0\""
param *.node[*].ipv4.configurator.mcastGroups "\"224.0.0.1\""
param *.node[*].mobility.typename "\"VeinsInetMobility\""
param *.manager.updateInterval 0.1s
param *.manager.host "\"localhost\""
param *.manager.port 9999
param *.manager.autoShutdown true
param *.manager.launchConfig "xmldoc(\"centerquevedo.launchd.xml\")"
param *.manager.moduleType "\"vanetquevedo.veins_inet.VeinsInetCar\""

vector 0 Scenario.node[0].wlan[0].radio radioMode:vector ETV
attr interpolationmode sample-hold
attr source radioModeChanged
attr title "Radio mode, vector"
vector 1 Scenario.node[0].wlan[0].radio radioChannel:vector ETV
attr interpolationmode sample-hold
attr source radioChannelChanged
attr title "Radio channel, vector"
vector 2 Scenario.node[0].wlan[0].radio receptionState:vector ETV
attr interpolationmode sample-hold
attr source receptionStateChanged
attr title "Radio reception state, vector"
vector 3 Scenario.node[0].wlan[0].mac.dcf.recoveryProcedure contentionWindowChanged:vector ETV
attr interpolationmode sample-hold
attr title "contention window, vector"
vector 4 Scenario.node[1].wlan[0].radio radioMode:vector ETV
attr interpolationmode sample-hold
attr source radioModeChanged
attr title "Radio mode, vector"
vector 5 Scenario.node[1].wlan[0].radio radioChannel:vector ETV
attr interpolationmode sample-hold
attr source radioChannelChanged
attr title "Radio channel, vector"
vector 6 Scenario.node[1].wlan[0].radio receptionState:vector ETV
attr interpolationmode sample-hold
attr source receptionStateChanged
attr title "Radio reception state, vector"
vector 7 Scenario.node[1].wlan[0].mac.dcf.recoveryProcedure contentionWindowChanged:vector ETV
attr interpolationmode sample-hold
attr title "contention window, vector"
vector 8 Scenario.node[2].wlan[0].radio radioMode:vector ETV
attr interpolationmode sample-hold
attr source radioModeChanged
attr title "Radio mode, vector"
vector 9 Scenario.node[2].wlan[0].radio radioChannel:vector ETV
attr interpolationmode sample-hold
attr source radioChannelChanged
attr title "Radio channel, vector"
vector 10 Scenario.node[2].wlan[0].radio receptionState:vector ETV
attr interpolationmode sample-hold
attr source receptionStateChanged
attr title "Radio reception state, vector"
vector 11 Scenario.node[2].wlan[0].mac.dcf.recoveryProcedure contentionWindowChanged:vector ETV
attr interpolationmode sample-hold
attr title "contention window, vector"
vector 12 Scenario.node[3].wlan[0].radio radioMode:vector ETV
attr interpolationmode sample-hold
attr source radioModeChanged
attr title "Radio mode, vector"
vector 13 Scenario.node[3].wlan[0].radio radioChannel:vector ETV
attr interpolationmode sample-hold
attr source radioChannelChanged
attr title "Radio channel, vector"
vector 14 Scenario.node[3].wlan[0].radio receptionState:vector ETV
attr interpolationmode sample-hold
attr source receptionStateChanged
attr title "Radio reception state, vector"
vector 15 Scenario.node[3].wlan[0].mac.dcf.recoveryProcedure contentionWindowChanged:vector ETV
attr interpolationmode sample-hold
attr title "contention window, vector"
vector 16 Scenario.node[4].wlan[0].radio radioMode:vector ETV
attr interpolationmode sample-hold
attr source radioModeChanged
attr title "Radio mode, vector"
vector 17 Scenario.node[4].wlan[0].radio radioChannel:vector ETV
attr interpolationmode sample-hold
attr source radioChannelChanged
attr title "Radio channel, vector"
vector 18 Scenario.node[4].wlan[0].radio receptionState:vector ETV
attr interpolationmode sample-hold
attr source receptionStateChanged
attr title "Radio reception state, vector"
vector 19 Scenario.node[4].wlan[0].mac.dcf.recoveryProcedure contentionWindowChanged:vector ETV
attr interpolationmode sample-hold
attr title "contention window, vector"
vector 20 Scenario.node[0].app[0] packetSent:vector(packetBytes) ETV
attr interpolationmode none
attr source packetSent
attr title "packets sent, vector(packetBytes)"
vector 21 Scenario.node[0].udp packetSent:vector(packetBytes) ETV
attr interpolationmode none
attr source packetSent
attr title "packets sent, vector(packetBytes)"
vector 22 Scenario.node[0].lo[0].lo rcvdPkFromHl:vector(packetBytes) ETV
attr interpolationmode none
attr source packetReceivedFromUpper
attr title "packets received from higher layer, vector(packetBytes)"
vector 23 Scenario.node[0].lo[0].lo passedUpPk:vector(packetBytes) ETV
attr interpolationmode none
attr source packetSentToUpper
attr title "packets passed to higher layer, vector(packetBytes)"
vector 24 Scenario.node[0].wlan[0].mac packetReceivedFromUpper:vector(packetBytes) ETV
attr interpolationmode none
attr title "packets received from upper layer, vector(packetBytes)"
vector 25 Scenario.node[0].wlan[0].mac.dcf.channelAccess.pendingQueue packetPushed:vector(packetBytes) ETV
attr interpolationmode none
attr title "packet pushed, vector(packetBytes)"
vector 26 Scenario.node[0].wlan[0].mac.dcf.channelAccess.pendingQueue queueLength:vector ETV
attr interpolationmode sample-hold
attr source "count(packetPushed) - count(packetPopped) - count(packetRemoved) - count(packetDropped)"
attr title "queue length, vector"
vector 27 Scenario.node[0].wlan[0].mac.dcf.channelAccess.contention backoffPeriodGenerated:vector ETV
attr interpolationmode none
attr title "backoff periods, vector"
vector 28 Scenario.node[0].wlan[0].mac.dcf.channelAccess.contention backoffActive:vector ETV
attr interpolationmode sample-hold
attr source count(backoffStarted)-count(backoffStopped)
attr title "backoff active, vector"
vector 29 Scenario.node[0].udp packetReceived:vector(packetBytes) ETV
attr interpolationmode none
attr source packetReceived
attr title "packets received, vector(packetBytes)"
vector 30 Scenario.node[0].udp passedUpPk:vector(count) ETV
attr interpolationmode none
attr source packetSentToUpper
attr title "packets passed up, vector(count)"
vector 31 Scenario.node[0].app[0] packetReceived:vector(packetBytes) ETV
attr interpolationmode none
attr source packetReceived
attr title "packets received, vector(packetBytes)"
vector 32 Scenario.node[0].app[0] throughput:vector ETV
attr source throughput(packetReceived)
attr title "throughput, vector"
attr unit bps
vector 33 Scenario.node[0].app[0] rcvdPkLifetime:vector ETV
attr interpolationmode none
attr source dataAge(packetReceived)
attr title "received packet lifetime, vector"
attr unit s
vector 34 Scenario.node[0].wlan[0].mac.dcf.channelAccess.pendingQueue packetPopped:vector(packetBytes) ETV
attr interpolationmode none
attr title "packet popped, vector(packetBytes)"
vector 35 Scenario.node[0].wlan[0].mac.dcf.channelAccess.pendingQueue queueingTime:vector ETV
attr interpolationmode none
attr source queueingTime(packetPopped)
attr title "queueing times, vector"
attr unit s
vector 36 Scenario.node[0].wlan[0].mac.dcf.channelAccess.inProgressFrames queueLength:vector ETV
attr interpolationmode sample-hold
attr source "count(packetEnqueued) - count(packetDequeued)"
attr title "queue length, vector"
vector 37 Scenario.node[0].wlan[0].mac.dcf datarateSelected:vector ETV
attr interpolationmode none
attr title "datarates selected, vector"
vector 38 Scenario.node[0].wlan[0].mac packetSentToLower:vector(packetBytes) ETV
attr interpolationmode none
attr title "packets sent to lower layer, vector(packetBytes)"
vector 39 Scenario.node[0].wlan[0].mac.dcf frameSequenceActive:vector ETV
attr interpolationmode sample-hold
attr source count(frameSequenceStarted)-count(frameSequenceFinished)
attr title "frame sequence active, vector"
vector 40 Scenario.node[0].wlan[0].radio transmissionState:vector ETV
attr interpolationmode sample-hold
attr source transmissionStateChanged
attr title "Radio transmission state, vector"
vector 41 Scenario.node[0].wlan[0].mac.dcf packetSentToPeer:vector(packetBytes) ETV
attr interpolationmode none
attr title "packets sent, vector(packetBytes)"
vector 42 Scenario.node[0].wlan[0].mac.dcf packetSentToPeerMulticast:vector(packetBytes) ETV
attr interpolationmode none
attr source ieee80211Multicast(packetSentToPeer)
attr title "packets sent: multicast, vector(packetBytes)"
vector 43 Scenario.node[0].wlan[0].mac.dcf packetSentToPeerWithoutRetry:vector(packetBytes) ETV
attr interpolationmode none
attr source ieee80211NotRetry(packetSentToPeer)
attr title "packets sent: without retry, vector(packetBytes)"
vector 44 Scenario.node[0].wlan[0].mac.dcf.channelAccess.inProgressFrames queueingTime:vector ETV
attr interpolationmode none
attr source queueingTime(packetDequeued)
attr title "queueing times, vector"
vector 45 Scenario.node[1].wlan[0].mac packetReceivedFromLower:vector(packetBytes) ETV
attr interpolationmode none
attr title "packets received from lower layer, vector(packetBytes)"
vector 46 Scenario.node[1].wlan[0].mac.dcf packetReceivedFromPeer:vector(packetBytes) ETV
attr interpolationmode none
attr title "packets received, vector(packetBytes)"
vector 47 Scenario.node[1].wlan[0].mac.dcf packetReceivedFromPeerMulticast:vector(packetBytes) ETV
attr interpolationmode none
attr source ieee80211Multicast(packetReceivedFromPeer)
attr title "packets received: multicast, vector(packetBytes)"
vector 48 Scenario.node[1].wlan[0].mac.dcf packetReceivedFromPeerWithoutRetry:vector(packetBytes) ETV
attr interpolationmode none
attr source ieee80211NotRetry(packetReceivedFromPeer)
attr title "packets received: without retry, vector(packetBytes)"
vector 49 Scenario.node[1].wlan[0].mac packetSentToUpper:vector(packetBytes) ETV
attr interpolationmode none
attr title "packets sent to upper layer, vector(packetBytes)"
vector 50 Scenario.node[1].udp packetReceived:vector(packetBytes) ETV
attr interpolationmode none
attr source packetReceived
attr title "packets received, vector(packetBytes)"
vector 51 Scenario.node[1].udp passedUpPk:vector(count) ETV
attr interpolationmode none
attr source packetSentToUpper
attr title "packets passed up, vector(count)"
vector 52 Scenario.node[1].app[0] packetReceived:vector(packetBytes) ETV
attr interpolationmode none
attr source packetReceived
attr title "packets received, vector(packetBytes)"
vector 53 Scenario.node[1].app[0] throughput:vector ETV
attr source throughput(packetReceived)
attr title "throughput, vector"
attr unit bps
vector 54 Scenario.node[1].app[0] rcvdPkLifetime:vector ETV
attr interpolationmode none
attr source dataAge(packetReceived)
attr title "received packet lifetime, vector"
attr unit s
vector 55 Scenario.node[4].wlan[0].mac packetReceivedFromLower:vector(packetBytes) ETV
attr interpolationmode none
attr title "packets received from lower layer, vector(packetBytes)"
vector 56 Scenario.node[4].wlan[0].mac.dcf packetReceivedFromPeer:vector(packetBytes) ETV
attr interpolationmode none
attr title "packets received, vector(packetBytes)"
vector 57 Scenario.node[4].wlan[0].mac.dcf packetReceivedFromPeerMulticast:vector(packetBytes) ETV
attr interpolationmode none
attr source ieee80211Multicast(packetReceivedFromPeer)
attr title "packets received: multicast, vector(packetBytes)"
vector 58 Scenario.node[4].wlan[0].mac.dcf packetReceivedFromPeerWithoutRetry:vector(packetBytes) ETV
attr interpolationmode none
attr source ieee80211NotRetry(packetReceivedFromPeer)
attr title "packets received: without retry, vector(packetBytes)"
vector 59 Scenario.node[4].wlan[0].mac packetSentToUpper:vector(packetBytes) ETV
attr interpolationmode none
attr title "packets sent to upper layer, vector(packetBytes)"
vector 60 Scenario.node[4].udp packetReceived:vector(packetBytes) ETV
attr interpolationmode none
attr source packetReceived
attr title "packets received, vector(packetBytes)"
vector 61 Scenario.node[4].udp passedUpPk:vector(count) ETV
attr interpolationmode none
attr source packetSentToUpper
attr title "packets passed up, vector(count)"
vector 62 Scenario.node[4].app[0] packetReceived:vector(packetBytes) ETV
attr interpolationmode none
attr source packetReceived
attr title "packets received, vector(packetBytes)"
vector 63 Scenario.node[4].app[0] throughput:vector ETV
attr source throughput(packetReceived)
attr title "throughput, vector"
attr unit bps
vector 64 Scenario.node[4].app[0] rcvdPkLifetime:vector ETV
attr interpolationmode none
attr source dataAge(packetReceived)
attr title "received packet lifetime, vector"
attr unit s
vector 65 Scenario.node[2].wlan[0].mac packetReceivedFromLower:vector(packetBytes) ETV
attr interpolationmode none
attr title "packets received from lower layer, vector(packetBytes)"
vector 66 Scenario.node[2].wlan[0].mac.dcf packetReceivedFromPeer:vector(packetBytes) ETV
attr interpolationmode none
attr title "packets received, vector(packetBytes)"
vector 67 Scenario.node[2].wlan[0].mac.dcf packetReceivedFromPeerMulticast:vector(packetBytes) ETV
attr interpolationmode none
attr source ieee80211Multicast(packetReceivedFromPeer)
attr title "packets received: multicast, vector(packetBytes)"
vector 68 Scenario.node[2].wlan[0].mac.dcf packetReceivedFromPeerWithoutRetry:vector(packetBytes) ETV
attr interpolationmode none
attr source ieee80211NotRetry(packetReceivedFromPeer)
attr title "packets received: without retry, vector(packetBytes)"
vector 69 Scenario.node[2].wlan[0].mac packetSentToUpper:vector(packetBytes) ETV
attr interpolationmode none
attr title "packets sent to upper layer, vector(packetBytes)"
vector 70 Scenario.node[2].udp packetReceived:vector(packetBytes) ETV
attr interpolationmode none
attr source packetReceived
attr title "packets received, vector(packetBytes)"
vector 71 Scenario.node[2].udp passedUpPk:vector(count) ETV
attr interpolationmode none
attr source packetSentToUpper
attr title "packets passed up, vector(count)"
vector 72 Scenario.node[2].app[0] packetReceived:vector(packetBytes) ETV
attr interpolationmode none
attr source packetReceived
attr title "packets received, vector(packetBytes)"
vector 73 Scenario.node[2].app[0] throughput:vector ETV
attr source throughput(packetReceived)
attr title "throughput, vector"
attr unit bps
vector 74 Scenario.node[2].app[0] rcvdPkLifetime:vector ETV
attr interpolationmode none
attr source dataAge(packetReceived)
attr title "received packet lifetime, vector"
attr unit s
vector 75 Scenario.node[5].wlan[0].radio radioMode:vector ETV
attr interpolationmode sample-hold
attr source radioModeChanged
attr title "Radio mode, vector"
vector 76 Scenario.node[5].wlan[0].radio radioChannel:vector ETV
attr interpolationmode sample-hold
attr source radioChannelChanged
attr title "Radio channel, vector"
vector 77 Scenario.node[5].wlan[0].radio receptionState:vector ETV
attr interpolationmode sample-hold
attr source receptionStateChanged
attr title "Radio reception state, vector"
vector 78 Scenario.node[5].wlan[0].mac.dcf.recoveryProcedure contentionWindowChanged:vector ETV
attr interpolationmode sample-hold
attr title "contention window, vector"
vector 79 Scenario.node[6].wlan[0].radio radioMode:vector ETV
attr interpolationmode sample-hold
attr source radioModeChanged
attr title "Radio mode, vector"
vector 80 Scenario.node[6].wlan[0].radio radioChannel:vector ETV
attr interpolationmode sample-hold
attr source radioChannelChanged
attr title "Radio channel, vector"
vector 81 Scenario.node[6].wlan[0].radio receptionState:vector ETV
attr interpolationmode sample-hold
attr source receptionStateChanged
attr title "Radio reception state, vector"
vector 82 Scenario.node[6].wlan[0].mac.dcf.recoveryProcedure contentionWindowChanged:vector ETV
attr interpolationmode sample-hold
attr title "contention window, vector"
vector 83 Scenario.node[7].wlan[0].radio radioMode:vector ETV
attr interpolationmode sample-hold
attr source radioModeChanged
attr title "Radio mode, vector"
vector 84 Scenario.node[7].wlan[0].radio radioChannel:vector ETV
attr interpolationmode sample-hold
attr source radioChannelChanged
attr title "Radio channel, vector"
vector 85 Scenario.node[7].wlan[0].radio receptionState:vector ETV
attr interpolationmode sample-hold
attr source receptionStateChanged
attr title "Radio reception state, vector"
vector 86 Scenario.node[7].wlan[0].mac.dcf.recoveryProcedure contentionWindowChanged:vector ETV
attr interpolationmode sample-hold
attr title "contention window, vector"
vector 87 Scenario.node[8].wlan[0].radio radioMode:vector ETV
attr interpolationmode sample-hold
attr source radioModeChanged
attr title "Radio mode, vector"
vector 88 Scenario.node[8].wlan[0].radio radioChannel:vector ETV
attr interpolationmode sample-hold
attr source radioChannelChanged
attr title "Radio channel, vector"
vector 89 Scenario.node[8].wlan[0].radio receptionState:vector ETV
attr interpolationmode sample-hold
attr source receptionStateChanged
attr title "Radio reception state, vector"
vector 90 Scenario.node[8].wlan[0].mac.dcf.recoveryProcedure contentionWindowChanged:vector ETV
attr interpolationmode sample-hold
attr title "contention window, vector"
vector 91 Scenario.node[9].wlan[0].radio radioMode:vector ETV
attr interpolationmode sample-hold
attr source radioModeChanged
attr title "Radio mode, vector"
vector 92 Scenario.node[9].wlan[0].radio radioChannel:vector ETV
attr interpolationmode sample-hold
attr source radioChannelChanged
attr title "Radio channel, vector"
vector 93 Scenario.node[9].wlan[0].radio receptionState:vector ETV
attr interpolationmode sample-hold
attr source receptionStateChanged
attr title "Radio reception state, vector"
vector 94 Scenario.node[9].wlan[0].mac.dcf.recoveryProcedure contentionWindowChanged:vector ETV
attr interpolationmode sample-hold
attr title "contention window, vector"
vector 95 Scenario.node[10].wlan[0].radio radioMode:vector ETV
attr interpolationmode sample-hold
attr source radioModeChanged
attr title "Radio mode, vector"
vector 96 Scenario.node[10].wlan[0].radio radioChannel:vector ETV
attr interpolationmode sample-hold
attr source radioChannelChanged
attr title "Radio channel, vector"
vector 97 Scenario.node[10].wlan[0].radio receptionState:vector ETV
attr interpolationmode sample-hold
attr source receptionStateChanged
attr title "Radio reception state, vector"
vector 98 Scenario.node[10].wlan[0].mac.dcf.recoveryProcedure contentionWindowChanged:vector ETV
attr interpolationmode sample-hold
attr title "contention window, vector"
vector 99 Scenario.node[7].wlan[0].mac packetReceivedFromLower:vector(packetBytes) ETV
attr interpolationmode none
attr title "packets received from lower layer, vector(packetBytes)"
vector 100 Scenario.node[7].wlan[0].mac.dcf packetReceivedFromPeer:vector(packetBytes) ETV
attr interpolationmode none
attr title "packets received, vector(packetBytes)"
vector 101 Scenario.node[7].wlan[0].mac.dcf packetReceivedFromPeerMulticast:vector(packetBytes) ETV
attr interpolationmode none
attr source ieee80211Multicast(packetReceivedFromPeer)
attr title "packets received: multicast, vector(packetBytes)"
vector 102 Scenario.node[7].wlan[0].mac.dcf packetReceivedFromPeerWithoutRetry:vector(packetBytes) ETV
attr interpolationmode none
attr source ieee80211NotRetry(packetReceivedFromPeer)
attr title "packets received: without retry, vector(packetBytes)"
vector 103 Scenario.node[7].wlan[0].mac packetSentToUpper:vector(packetBytes) ETV
attr interpolationmode none
attr title "packets sent to upper layer, vector(packetBytes)"
vector 104 Scenario.node[7].udp packetReceived:vector(packetBytes) ETV
attr interpolationmode none
attr source packetReceived
attr title "packets received, vector(packetBytes)"
vector 105 Scenario.node[7].udp passedUpPk:vector(count) ETV
attr interpolationmode none
attr source packetSentToUpper
attr title "packets passed up, vector(count)"
vector 106 Scenario.node[7].app[0] packetReceived:vector(packetBytes) ETV
attr interpolationmode none
attr source packetReceived
attr title "packets received, vector(packetBytes)"
vector 107 Scenario.node[7].app[0] throughput:vector ETV
attr source throughput(packetReceived)
attr title "throughput, vector"
attr unit bps
vector 108 Scenario.node[7].app[0] rcvdPkLifetime:vector ETV
attr interpolationmode none
attr source dataAge(packetReceived)
attr title "received packet lifetime, vector"
attr unit s
vector 109 Scenario.node[5].wlan[0].mac packetReceivedFromLower:vector(packetBytes) ETV
attr interpolationmode none
attr title "packets received from lower layer, vector(packetBytes)"
vector 110 Scenario.node[5].wlan[0].mac.dcf packetReceivedFromPeer:vector(packetBytes) ETV
attr interpolationmode none
attr title "packets received, vector(packetBytes)"
vector 111 Scenario.node[5].wlan[0].mac.dcf packetReceivedFromPeerMulticast:vector(packetBytes) ETV
attr interpolationmode none
attr source ieee80211Multicast(packetReceivedFromPeer)
attr title "packets received: multicast, vector(packetBytes)"
vector 112 Scenario.node[5].wlan[0].mac.dcf packetReceivedFromPeerWithoutRetry:vector(packetBytes) ETV
attr interpolationmode none
attr source ieee80211NotRetry(packetReceivedFromPeer)
attr title "packets received: without retry, vector(packetBytes)"
vector 113 Scenario.node[5].wlan[0].mac packetSentToUpper:vector(packetBytes) ETV
attr interpolationmode none
attr title "packets sent to upper layer, vector(packetBytes)"
vector 114 Scenario.node[5].udp packetReceived:vector(packetBytes) ETV
attr interpolationmode none
attr source packetReceived
attr title "packets received, vector(packetBytes)"
vector 115 Scenario.node[5].udp passedUpPk:vector(count) ETV
attr interpolationmode none
attr source packetSentToUpper
attr title "packets passed up, vector(count)"
vector 116 Scenario.node[5].app[0] packetReceived:vector(packetBytes) ETV
attr interpolationmode none
attr source packetReceived
attr title "packets received, vector(packetBytes)"
vector 117 Scenario.node[5].app[0] throughput:vector ETV
attr source throughput(packetReceived)
attr title "throughput, vector"
attr unit bps
vector 118 Scenario.node[5].app[0] rcvdPkLifetime:vector ETV
attr interpolationmode none
attr source dataAge(packetReceived)
attr title "received packet lifetime, vector"
attr unit s
vector 119 Scenario.node[8].wlan[0].mac packetReceivedFromLower:vector(packetBytes) ETV
attr interpolationmode none
attr title "packets received from lower layer, vector(packetBytes)"
vector 120 Scenario.node[8].wlan[0].mac.dcf packetReceivedFromPeer:vector(packetBytes) ETV
attr interpolationmode none
attr title "packets received, vector(packetBytes)"
vector 121 Scenario.node[8].wlan[0].mac.dcf packetReceivedFromPeerMulticast:vector(packetBytes) ETV
attr interpolationmode none
attr source ieee80211Multicast(packetReceivedFromPeer)
attr title "packets received: multicast, vector(packetBytes)"
vector 122 Scenario.node[8].wlan[0].mac.dcf packetReceivedFromPeerWithoutRetry:vector(packetBytes) ETV
attr interpolationmode none
attr source ieee80211NotRetry(packetReceivedFromPeer)
attr title "packets received: without retry, vector(packetBytes)"
vector 123 Scenario.node[8].wlan[0].mac packetSentToUpper:vector(packetBytes) ETV
attr interpolationmode none
attr title "packets sent to upper layer, vector(packetBytes)"
vector 124 Scenario.node[8].udp packetReceived:vector(packetBytes) ETV
attr interpolationmode none
attr source packetReceived
attr title "packets received, vector(packetBytes)"
vector 125 Scenario.node[8].udp passedUpPk:vector(count) ETV
attr interpolationmode none
attr source packetSentToUpper
attr title "packets passed up, vector(count)"
vector 126 Scenario.node[8].app[0] packetReceived:vector(packetBytes) ETV
attr interpolationmode none
attr source packetReceived
attr title "packets received, vector(packetBytes)"
vector 127 Scenario.node[8].app[0] throughput:vector ETV
attr source throughput(packetReceived)
attr title "throughput, vector"
attr unit bps
vector 128 Scenario.node[8].app[0] rcvdPkLifetime:vector ETV
attr interpolationmode none
attr source dataAge(packetReceived)
attr title "received packet lifetime, vector"
attr unit s
vector 129 Scenario.node[6].wlan[0].mac packetReceivedFromLower:vector(packetBytes) ETV
attr interpolationmode none
attr title "packets received from lower layer, vector(packetBytes)"
vector 130 Scenario.node[6].wlan[0].mac.dcf packetReceivedFromPeer:vector(packetBytes) ETV
attr interpolationmode none
attr title "packets received, vector(packetBytes)"
vector 131 Scenario.node[6].wlan[0].mac.dcf packetReceivedFromPeerMulticast:vector(packetBytes) ETV
attr interpolationmode none
attr source ieee80211Multicast(packetReceivedFromPeer)
attr title "packets received: multicast, vector(packetBytes)"
vector 132 Scenario.node[6].wlan[0].mac.dcf packetReceivedFromPeerWithoutRetry:vector(packetBytes) ETV
attr interpolationmode none
attr source ieee80211NotRetry(packetReceivedFromPeer)
attr title "packets received: without retry, vector(packetBytes)"
vector 133 Scenario.node[6].wlan[0].mac packetSentToUpper:vector(packetBytes) ETV
attr interpolationmode none
attr title "packets sent to upper layer, vector(packetBytes)"
vector 134 Scenario.node[6].udp packetReceived:vector(packetBytes) ETV
attr interpolationmode none
attr source packetReceived
attr title "packets received, vector(packetBytes)"
vector 135 Scenario.node[6].udp passedUpPk:vector(count) ETV
attr interpolationmode none
attr source packetSentToUpper
attr title "packets passed up, vector(count)"
vector 136 Scenario.node[6].app[0] packetReceived:vector(packetBytes) ETV
attr interpolationmode none
attr source packetReceived
attr title "packets received, vector(packetBytes)"
vector 137 Scenario.node[6].app[0] throughput:vector ETV
attr source throughput(packetReceived)
attr title "throughput, vector"
attr unit bps
vector 138 Scenario.node[6].app[0] rcvdPkLifetime:vector ETV
attr interpolationmode none
attr source dataAge(packetReceived)
attr title "received packet lifetime, vector"
attr unit s
vector 139 Scenario.node[9].wlan[0].mac packetReceivedFromLower:vector(packetBytes) ETV
attr interpolationmode none
attr title "packets received from lower layer, vector(packetBytes)"
vector 140 Scenario.node[9].wlan[0].mac.dcf packetReceivedFromPeer:vector(packetBytes) ETV
attr interpolationmode none
attr title "packets received, vector(packetBytes)"
vector 141 Scenario.node[9].wlan[0].mac.dcf packetReceivedFromPeerMulticast:vector(packetBytes) ETV
attr interpolationmode none
attr source ieee80211Multicast(packetReceivedFromPeer)
attr title "packets received: multicast, vector(packetBytes)"
vector 142 Scenario.node[9].wlan[0].mac.dcf packetReceivedFromPeerWithoutRetry:vector(packetBytes) ETV
attr interpolationmode none
attr source ieee80211NotRetry(packetReceivedFromPeer)
attr title "packets received: without retry, vector(packetBytes)"
vector 143 Scenario.node[9].wlan[0].mac packetSentToUpper:vector(packetBytes) ETV
attr interpolationmode none
attr title "packets sent to upper layer, vector(packetBytes)"
vector 144 Scenario.node[9].udp packetReceived:vector(packetBytes) ETV
attr interpolationmode none
attr source packetReceived
attr title "packets received, vector(packetBytes)"
vector 145 Scenario.node[9].udp passedUpPk:vector(count) ETV
attr interpolationmode none
attr source packetSentToUpper
attr title "packets passed up, vector(count)"
vector 146 Scenario.node[9].app[0] packetReceived:vector(packetBytes) ETV
attr interpolationmode none
attr source packetReceived
attr title "packets received, vector(packetBytes)"
vector 147 Scenario.node[9].app[0] throughput:vector ETV
attr source throughput(packetReceived)
attr title "throughput, vector"
attr unit bps
vector 148 Scenario.node[9].app[0] rcvdPkLifetime:vector ETV
attr interpolationmode none
attr source dataAge(packetReceived)
attr title "received packet lifetime, vector"
attr unit s
vector 149 Scenario.node[10].wlan[0].mac packetReceivedFromLower:vector(packetBytes) ETV
attr interpolationmode none
attr title "packets received from lower layer, vector(packetBytes)"
vector 150 Scenario.node[10].wlan[0].mac.dcf packetReceivedFromPeer:vector(packetBytes) ETV
attr interpolationmode none
attr title "packets received, vector(packetBytes)"
vector 151 Scenario.node[10].wlan[0].mac.dcf packetReceivedFromPeerMulticast:vector(packetBytes) ETV
attr interpolationmode none
attr source ieee80211Multicast(packetReceivedFromPeer)
attr title "packets received: multicast, vector(packetBytes)"
vector 152 Scenario.node[10].wlan[0].mac.dcf packetReceivedFromPeerWithoutRetry:vector(packetBytes) ETV
attr interpolationmode none
attr source ieee80211NotRetry(packetReceivedFromPeer)
attr title "packets received: without retry, vector(packetBytes)"
vector 153 Scenario.node[10].wlan[0].mac packetSentToUpper:vector(packetBytes) ETV
attr interpolationmode none
attr title "packets sent to upper layer, vector(packetBytes)"
vector 154 Scenario.node[10].udp packetReceived:vector(packetBytes) ETV
attr interpolationmode none
attr source packetReceived
attr title "packets received, vector(packetBytes)"
vector 155 Scenario.node[10].udp passedUpPk:vector(count) ETV
attr interpolationmode none
attr source packetSentToUpper
attr title "packets passed up, vector(count)"
vector 156 Scenario.node[10].app[0] packetReceived:vector(packetBytes) ETV
attr interpolationmode none
attr source packetReceived
attr title "packets received, vector(packetBytes)"
vector 157 Scenario.node[10].app[0] throughput:vector ETV
attr source throughput(packetReceived)
attr title "throughput, vector"
attr unit bps
vector 158 Scenario.node[10].app[0] rcvdPkLifetime:vector ETV
attr interpolationmode none
attr source dataAge(packetReceived)
attr title "received packet lifetime, vector"
attr unit s
vector 159 Scenario.node[3].app[0] throughput:vector ETV
attr source throughput(packetReceived)
attr title "throughput, vector"
attr unit bps
15	41	3.1	15
14	41	3.1	1
12	41	3.1	0
12	41	3.1	0
12	41	3.1	2
13	41	3.1	3
159	351	0.1	0
159	351	0.2	0
159	351	0.3	0
159	351	0.4	0
159	351	0.5	0
159	351	0.6	0
159	351	0.7	0
159	351	0.8	0
159	351	0.9	0
159	351	1	0
159	351	1.1	0
159	351	1.2	0
159	351	1.3	0
159	351	1.4	0
159	351	1.5	0
159	351	1.6	0
159	351	1.7	0
159	351	1.8	0
159	351	1.9	0
159	351	2	0
159	351	2.1	0
159	351	2.2	0
159	351	2.3	0
159	351	2.4	0
159	351	2.5	0
159	351	2.6	0
159	351	2.7	0
159	351	2.8	0
159	351	2.9	0
159	351	3	0
159	351	3.1	0
159	351	3.2	0
159	351	3.3	0
159	351	3.4	0
159	351	3.5	0
159	351	3.6	0
159	351	3.7	0
159	351	3.8	0
159	351	3.9	0
159	351	4	0
159	351	4.1	0
159	351	4.2	0
159	351	4.3	0
159	351	4.4	0
159	351	4.5	0
159	351	4.6	0
159	351	4.7	0
159	351	4.8	0
159	351	4.9	0
159	351	5	0
159	351	5.1	0
159	351	5.2	0
159	351	5.3	0
159	351	5.4	0
159	351	5.5	0
159	351	5.6	0
159	351	5.7	0
159	351	5.8	0
159	351	5.9	0
159	351	6	0
159	351	6.1	0
159	351	6.2	0
159	351	6.3	0
159	351	6.4	0
159	351	6.5	0
159	351	6.6	0
159	351	6.7	0
159	351	6.8	0
159	351	6.9	0
159	351	7	0
159	351	7.1	0
159	351	7.2	0
159	351	7.3	0
159	351	7.4	0
159	351	7.5	0
159	351	7.6	0
159	351	7.7	0
159	351	7.8	0
159	351	7.9	0
159	351	8	0
159	351	8.1	0
159	351	8.2	0
159	351	8.3	0
159	351	8.4	0
159	351	8.5	0
159	351	8.6	0
159	351	8.7	0
159	351	8.8	0
159	351	8.9	0
159	351	9	0
159	351	9.1	0
159	351	9.2	0
159	351	9.3	0
159	351	9.4	0
159	351	9.5	0
159	351	9.6	0
159	351	9.7	0
159	351	9.8	0
159	351	9.9	0
159	351	10	0
159	351	10.1	0
159	351	10.2	0
159	351	10.3	0
159	351	10.4	0
159	351	10.5	0
159	351	10.6	0
159	351	10.7	0
159	351	10.8	0
159	351	10.9	0
159	351	11	0
159	351	11.1	0
159	351	11.2	0
159	351	11.3	0
159	351	11.4	0
159	351	11.5	0
159	351	11.6	0
159	351	11.7	0
159	351	11.8	0
159	351	11.9	0
159	351	12	0
159	351	12.1	0
159	351	12.2	0
159	351	12.3	0
159	351	12.4	0
159	351	12.5	0
159	351	12.6	0
159	351	12.7	0
159	351	12.8	0
159	351	12.9	0
159	351	13	0
159	351	13.1	0
159	351	13.2	0
159	351	13.3	0
159	351	13.4	0
159	351	13.5	0
159	351	13.6	0
159	351	13.7	0
159	351	13.8	0
159	351	13.9	0
159	351	14	0
159	351	14.1	0
159	351	14.2	0
159	351	14.3	0
159	351	14.4	0
159	351	14.5	0
159	351	14.6	0
159	351	14.7	0
159	351	14.8	0
159	351	14.9	0
159	351	15	0
159	351	15.1	0
159	351	15.2	0
159	351	15.3	0
159	351	15.4	0
159	351	15.5	0
159	351	15.6	0
159	351	15.7	0
159	351	15.8	0
159	351	15.9	0
159	351	16	0
159	351	16.1	0
159	351	16.2	0
159	351	16.3	0
159	351	16.4	0
159	351	16.5	0
159	351	16.6	0
159	351	16.7	0
159	351	16.8	0
159	351	16.9	0
159	351	17	0
159	351	17.1	0
159	351	17.2	0
159	351	17.3	0
159	351	17.4	0
159	351	17.5	0
159	351	17.6	0
159	351	17.7	0
159	351	17.8	0
159	351	17.9	0
159	351	18	0
159	351	18.1	0
159	351	18.2	0
159	351	18.3	0
159	351	18.4	0
159	351	18.5	0
159	351	18.6	0
159	351	18.7	0
159	351	18.8	0
159	351	18.9	0
159	351	19	0
159	351	19.1	0
159	351	19.2	0
159	351	19.3	0
159	351	19.4	0
159	351	19.5	0
159	351	19.6	0
159	351	19.7	0
159	351	19.8	0
159	351	19.9	0
159	351	20	0
159	351	20.1	0
45	87	5.00015256926	158
45	281	15.000152706592	158
45	476	25.00015287453	158
45	646	35.00015262708	158
49	87	5.00015256926	130
49	281	15.000152706592	130
49	476	25.00015287453	130
49	646	35.00015262708	130
48	87	5.00015256926	158
48	281	15.000152706592	158
48	476	25.00015287453	158
48	646	35.00015262708	158
47	87	5.00015256926	158
47	281	15.000152706592	158
47	476	25.00015287453	158
47	646	35.00015262708	158
46	87	5.00015256926	158
46	281	15.000152706592	158
46	476	25.00015287453	158
46	646	35.00015262708	158
7	15	1.1	15
6	15	1.1	1
6	80	5.00000056926	3
6	86	5.00015256926	1
6	243	15.000000706592	3
6	280	15.000152706592	1
6	424	25.00000087453	3
6	475	25.00015287453	1
6	604	35.00000062708	3
6	645	35.00015262708	1
4	15	1.1	0
4	15	1.1	0
4	15	1.1	2
5	15	1.1	3
50	90	5.00015256926	108
50	284	15.000152706592	108
50	479	25.00015287453	108
50	649	35.00015262708	108
51	90	5.00015256926	1
51	284	15.000152706592	2
51	479	25.00015287453	3
51	649	35.00015262708	4
54	91	5.00015256926	0.00015256926
54	285	15.000152706592	0.000152706592
54	480	25.00015287453	0.00015287453
54	650	35.00015262708	0.00015262708
53	91	0.1	0
53	91	0.2	0
53	91	0.3	0
53	91	0.4	0
53	91	0.5	0
53	91	0.6	0
53	91	0.7	0
53	91	0.8	0
53	91	0.9	0
53	91	1	0
53	91	1.1	0
53	91	1.2	0
53	91	1.3	0
53	91	1.4	0
53	91	1.5	0
53	91	1.6	0
53	91	1.7	0
53	91	1.8	0
53	91	1.9	0
53	91	2	0
53	91	2.1	0
53	91	2.2	0
53	91	2.3	0
53	91	2.4	0
53	91	2.5	0
53	91	2.6	0
53	91	2.7	0
53	91	2.8	0
53	91	2.9	0
53	91	3	0
53	91	3.1	0
53	91	3.2	0
53	91	3.3	0
53	91	3.4	0
53	91	3.5	0
53	91	3.6	0
53	91	3.7	0
53	91	3.8	0
53	91	3.9	0
53	91	4	0
53	91	4.1	0
53	91	4.2	0
53	91	4.3	0
53	91	4.4	0
53	91	4.5	0
53	91	4.6	0
53	91	4.7	0
53	91	4.8	0
53	91	4.9	0
53	91	5	0
53	285	5.1	8000
53	285	5.2	0
53	285	5.3	0
53	285	5.4	0
53	285	5.5	0
53	285	5.6	0
53	285	5.7	0
53	285	5.8	0
53	285	5.9	0
53	285	6	0
53	285	6.1	0
53	285	6.2	0
53	285	6.3	0
53	285	6.4	0
53	285	6.5	0
53	285	6.6	0
53	285	6.7	0
53	285	6.8	0
53	285	6.9	0
53	285	7	0
53	285	7.1	0
53	285	7.2	0
53	285	7.3	0
53	285	7.4	0
53	285	7.5	0
53	285	7.6	0
53	285	7.7	0
53	285	7.8	0
53	285	7.9	0
53	285	8	0
53	285	8.1	0
53	285	8.2	0
53	285	8.3	0
53	285	8.4	0
53	285	8.5	0
53	285	8.6	0
53	285	8.7	0
53	285	8.8	0
53	285	8.9	0
53	285	9	0
53	285	9.1	0
53	285	9.2	0
53	285	9.3	0
53	285	9.4	0
53	285	9.5	0
53	285	9.6	0
53	285	9.7	0
53	285	9.8	0
53	285	9.9	0
53	285	10	0
53	285	10.1	0
53	285	10.2	0
53	285	10.3	0
53	285	10.4	0
53	285	10.5	0
53	285	10.6	0
53	285	10.7	0
53	285	10.8	0
53	285	10.9	0
53	285	11	0
53	285	11.1	0
53	285	11.2	0
53	285	11.3	0
53	285	11.4	0
53	285	11.5	0
53	285	11.6	0
53	285	11.7	0
53	285	11.8	0
53	285	11.9	0
53	285	12	0
53	285	12.1	0
53	285	12.2	0
53	285	12.3	0
53	285	12.4	0
53	285	12.5	0
53	285	12.6	0
53	285	12.7	0
53	285	12.8	0
53	285	12.9	0
53	285	13	0
53	285	13.1	0
53	285	13.2	0
53	285	13.3	0
53	285	13.4	0
53	285	13.5	0
53	285	13.6	0
53	285	13.7	0
53	285	13.8	0
53	285	13.9	0
53	285	14	0
53	285	14.1	0
53	285	14.2	0
53	285	14.3	0
53	285	14.4	0
53	285	14.5	0
53	285	14.6	0
53	285	14.7	0
53	285	14.8	0
53	285	14.9	0
53	285	15	0
53	480	15.1	8000
53	480	15.2	0
53	480	15.3	0
53	480	15.4	0
53	480	15.5	0
53	480	15.6	0
53	480	15.7	0
53	480	15.8	0
53	480	15.9	0
53	480	16	0
53	480	16.1	0
53	480	16.2	0
53	480	16.3	0
53	480	16.4	0
53	480	16.5	0
53	480	16.6	0
53	480	16.7	0
53	480	16.8	0
53	480	16.9	0
53	480	17	0
53	480	17.1	0
53	480	17.2	0
53	480	17.3	0
53	480	17.4	0
53	480	17.5	0
53	480	17.6	0
53	480	17.7	0
53	480	17.8	0
53	480	17.9	0
53	480	18	0
53	480	18.1	0
53	480	18.2	0
53	480	18.3	0
53	480	18.4	0
53	480	18.5	0
53	480	18.6	0
53	480	18.7	0
53	480	18.8	0
53	480	18.9	0
53	480	19	0
53	480	19.1	0
53	480	19.2	0
53	480	19.3	0
53	480	19.4	0
53	480	19.5	0
53	480	19.6	0
53	480	19.7	0
53	480	19.8	0
53	480	19.9	0
53	480	20	0
53	480	20.1	0
53	480	20.2	0
53	480	20.3	0
53	480	20.4	0
53	480	20.5	0
53	480	20.6	0
53	480	20.7	0
53	480	20.8	0
53	480	20.9	0
53	480	21	0
53	480	21.1	0
53	480	21.2	0
53	480	21.3	0
53	480	21.4	0
53	480	21.5	0
53	480	21.6	0
53	480	21.7	0
53	480	21.8	0
53	480	21.9	0
53	480	22	0
53	480	22.1	0
53	480	22.2	0
53	480	22.3	0
53	480	22.4	0
53	480	22.5	0
53	480	22.6	0
53	480	22.7	0
53	480	22.8	0
53	480	22.9	0
53	480	23	0
53	480	23.1	0
53	480	23.2	0
53	480	23.3	0
53	480	23.4	0
53	480	23.5	0
53	480	23.6	0
53	480	23.7	0
53	480	23.8	0
53	480	23.9	0
53	480	24	0
53	480	24.1	0
53	480	24.2	0
53	480	24.3	0
53	480	24.4	0
53	480	24.5	0
53	480	24.6	0
53	480	24.7	0
53	480	24.8	0
53	480	24.9	0
53	480	25	0
53	650	25.1	8000
53	650	25.2	0
53	650	25.3	0
53	650	25.4	0
53	650	25.5	0
53	650	25.6	0
53	650	25.7	0
53	650	25.8	0
53	650	25.9	0
53	650	26	0
53	650	26.1	0
53	650	26.2	0
53	650	26.3	0
53	650	26.4	0
53	650	26.5	0
53	650	26.6	0
53	650	26.7	0
53	650	26.8	0
53	650	26.9	0
53	650	27	0
53	650	27.1	0
53	650	27.2	0
53	650	27.3	0
53	650	27.4	0
53	650	27.5	0
53	650	27.6	0
53	650	27.7	0
53	650	27.8	0
53	650	27.9	0
53	650	28	0
53	650	28.1	0
53	650	28.2	0
53	650	28.3	0
53	650	28.4	0
53	650	28.5	0
53	650	28.6	0
53	650	28.7	0
53	650	28.8	0
53	650	28.9	0
53	650	29	0
53	650	29.1	0
53	650	29.2	0
53	650	29.3	0
53	650	29.4	0
53	650	29.5	0
53	650	29.6	0
53	650	29.7	0
53	650	29.8	0
53	650	29.9	0
53	650	30	0
53	650	30.1	0
53	650	30.2	0
53	650	30.3	0
53	650	30.4	0
53	650	30.5	0
53	650	30.6	0
53	650	30.7	0
53	650	30.8	0
53	650	30.9	0
53	650	31	0
53	650	31.1	0
53	650	31.2	0
53	650	31.3	0
53	650	31.4	0
53	650	31.5	0
53	650	31.6	0
53	650	31.7	0
53	650	31.8	0
53	650	31.9	0
53	650	32	0
53	650	32.1	0
53	650	32.2	0
53	650	32.3	0
53	650	32.4	0
53	650	32.5	0
53	650	32.6	0
53	650	32.7	0
53	650	32.8	0
53	650	32.9	0
53	650	33	0
53	650	33.1	0
53	650	33.2	0
53	650	33.3	0
53	650	33.4	0
53	650	33.5	0
53	650	33.6	0
53	650	33.7	0
53	650	33.8	0
53	650	33.9	0
53	650	34	0
53	650	34.1	0
53	650	34.2	0
53	650	34.3	0
53	650	34.4	0
53	650	34.5	0
53	650	34.6	0
53	650	34.7	0
53	650	34.8	0
53	650	34.9	0
53	650	35	0
53	684	35.1	8000
53	684	35.2	0
53	684	35.3	0
53	684	35.4	0
53	684	35.5	0
53	684	35.6	0
53	684	35.7	0
53	684	35.8	0
53	684	35.9	0
53	684	36	0
53	684	36.1	0
53	684	36.2	0
53	684	36.3	0
53	684	36.4	0
53	684	36.5	0
53	684	36.6	0
53	684	36.7	0
53	684	36.8	0
53	684	36.9	0
53	684	37	0
53	684	37.1	0
52	91	5.00015256926	100
52	285	15.000152706592	100
52	480	25.00015287453	100
52	650	35.00015262708	100
99	251	15.000152312069	158
99	428	25.000152238384	158
99	616	35.000152248415	158
103	251	15.000152312069	130
103	428	25.000152238384	130
103	616	35.000152248415	130
102	251	15.000152312069	158
102	428	25.000152238384	158
102	616	35.000152248415	158
101	251	15.000152312069	158
101	428	25.000152238384	158
101	616	35.000152248415	158
100	251	15.000152312069	158
100	428	25.000152238384	158
100	616	35.000152248415	158
86	132	7.1	15
85	132	7.1	1
85	238	15.000000312069	3
85	250	15.000152312069	1
85	416	25.000000238384	3
85	427	25.000152238384	1
85	599	35.000000248415	3
85	615	35.000152248415	1
83	132	7.1	0
83	132	7.1	0
83	132	7.1	2
84	132	7.1	3
104	254	15.000152312069	108
104	431	25.000152238384	108
104	619	35.000152248415	108
105	254	15.000152312069	1
105	431	25.000152238384	2
105	619	35.000152248415	3
108	255	15.000152312069	0.000152312069
108	432	25.000152238384	0.000152238384
108	620	35.000152248415	0.000152248415
107	255	0.1	0
107	255	0.2	0
107	255	0.3	0
107	255	0.4	0
107	255	0.5	0
107	255	0.6	0
107	255	0.7	0
107	255	0.8	0
107	255	0.9	0
107	255	1	0
107	255	1.1	0
107	255	1.2	0
107	255	1.3	0
107	255	1.4	0
107	255	1.5	0
107	255	1.6	0
107	255	1.7	0
107	255	1.8	0
107	255	1.9	0
107	255	2	0
107	255	2.1	0
107	255	2.2	0
107	255	2.3	0
107	255	2.4	0
107	255	2.5	0
107	255	2.6	0
107	255	2.7	0
107	255	2.8	0
107	255	2.9	0
107	255	3	0
107	255	3.1	0
107	255	3.2	0
107	255	3.3	0
107	255	3.4	0
107	255	3.5	0
107	255	3.6	0
107	255	3.7	0
107	255	3.8	0
107	255	3.9	0
107	255	4	0
107	255	4.1	0
107	255	4.2	0
107	255	4.3	0
107	255	4.4	0
107	255	4.5	0
107	255	4.6	0
107	255	4.7	0
107	255	4.8	0
107	255	4.9	0
107	255	5	0
107	255	5.1	0
107	255	5.2	0
107	255	5.3	0
107	255	5.4	0
107	255	5.5	0
107	255	5.6	0
107	255	5.7	0
107	255	5.8	0
107	255	5.9	0
107	255	6	0
107	255	6.1	0
107	255	6.2	0
107	255	6.3	0
107	255	6.4	0
107	255	6.5	0
107	255	6.6	0
107	255	6.7	0
107	255	6.8	0
107	255	6.9	0
107	255	7	0
107	255	7.1	0
107	255	7.2	0
107	255	7.3	0
107	255	7.4	0
107	255	7.5	0
107	255	7.6	0
107	255	7.7	0
107	255	7.8	0
107	255	7.9	0
107	255	8	0
107	255	8.1	0
107	255	8.2	0
107	255	8.3	0
107	255	8.4	0
107	255	8.5	0
107	255	8.6	0
107	255	8.7	0
107	255	8.8	0
107	255	8.9	0
107	255	9	0
107	255	9.1	0
107	255	9.2	0
107	255	9.3	0
107	255	9.4	0
107	255	9.5	0
107	255	9.6	0
107	255	9.7	0
107	255	9.8	0
107	255	9.9	0
107	255	10	0
107	255	10.1	0
107	255	10.2	0
107	255	10.3	0
107	255	10.4	0
107	255	10.5	0
107	255	10.6	0
107	255	10.7	0
107	255	10.8	0
107	255	10.9	0
107	255	11	0
107	255	11.1	0
107	255	11.2	0
107	255	11.3	0
107	255	11.4	0
107	255	11.5	0
107	255	11.6	0
107	255	11.7	0
107	255	11.8	0
107	255	11.9	0
107	255	12	0
107	255	12.1	0
107	255	12.2	0
107	255	12.3	0
107	255	12.4	0
107	255	12.5	0
107	255	12.6	0
107	255	12.7	0
107	255	12.8	0
107	255	12.9	0
107	255	13	0
107	255	13.1	0
107	255	13.2	0
107	255	13.3	0
107	255	13.4	0
107	255	13.5	0
107	255	13.6	0
107	255	13.7	0
107	255	13.8	0
107	255	13.9	0
107	255	14	0
107	255	14.1	0
107	255	14.2	0
107	255	14.3	0
107	255	14.4	0
107	255	14.5	0
107	255	14.6	0
107	255	14.7	0
107	255	14.8	0
107	255	14.9	0
107	255	15	0
107	432	15.1	8000
107	432	15.2	0
107	432	15.3	0
107	432	15.4	0
107	432	15.5	0
107	432	15.6	0
107	432	15.7	0
107	432	15.8	0
107	432	15.9	0
107	432	16	0
107	432	16.1	0
107	432	16.2	0
107	432	16.3	0
107	432	16.4	0
107	432	16.5	0
107	432	16.6	0
107	432	16.7	0
107	432	16.8	0
107	432	16.9	0
107	432	17	0
107	432	17.1	0
107	432	17.2	0
107	432	17.3	0
107	432	17.4	0
107	432	17.5	0
107	432	17.6	0
107	432	17.7	0
107	432	17.8	0
107	432	17.9	0
107	432	18	0
107	432	18.1	0
107	432	18.2	0
107	432	18.3	0
107	432	18.4	0
107	432	18.5	0
107	432	18.6	0
107	432	18.7	0
107	432	18.8	0
107	432	18.9	0
107	432	19	0
107	432	19.1	0
107	432	19.2	0
107	432	19.3	0
107	432	19.4	0
107	432	19.5	0
107	432	19.6	0
107	432	19.7	0
107	432	19.8	0
107	432	19.9	0
107	432	20	0
107	432	20.1	0
107	432	20.2	0
107	432	20.3	0
107	432	20.4	0
107	432	20.5	0
107	432	20.6	0
107	432	20.7	0
107	432	20.8	0
107	432	20.9	0
107	432	21	0
107	432	21.1	0
107	432	21.2	0
107	432	21.3	0
107	432	21.4	0
107	432	21.5	0
107	432	21.6	0
107	432	21.7	0
107	432	21.8	0
107	432	21.9	0
107	432	22	0
107	432	22.1	0
107	432	22.2	0
107	432	22.3	0
107	432	22.4	0
107	432	22.5	0
107	432	22.6	0
107	432	22.7	0
107	432	22.8	0
107	432	22.9	0
107	432	23	0
107	432	23.1	0
107	432	23.2	0
107	432	23.3	0
107	432	23.4	0
107	432	23.5	0
107	432	23.6	0
107	432	23.7	0
107	432	23.8	0
107	432	23.9	0
107	432	24	0
107	432	24.1	0
107	432	24.2	0
107	432	24.3	0
107	432	24.4	0
107	432	24.5	0
107	432	24.6	0
107	432	24.7	0
107	432	24.8	0
107	432	24.9	0
107	432	25	0
107	620	25.1	8000
107	620	25.2	0
107	620	25.3	0
107	620	25.4	0
107	620	25.5	0
107	620	25.6	0
107	620	25.7	0
107	620	25.8	0
107	620	25.9	0
107	620	26	0
107	620	26.1	0
107	620	26.2	0
107	620	26.3	0
107	620	26.4	0
107	620	26.5	0
107	620	26.6	0
107	620	26.7	0
107	620	26.8	0
107	620	26.9	0
107	620	27	0
107	620	27.1	0
107	620	27.2	0
107	620	27.3	0
107	620	27.4	0
107	620	27.5	0
107	620	27.6	0
107	620	27.7	0
107	620	27.8	0
107	620	27.9	0
107	620	28	0
107	620	28.1	0
107	620	28.2	0
107	620	28.3	0
107	620	28.4	0
107	620	28.5	0
107	620	28.6	0
107	620	28.7	0
107	620	28.8	0
107	620	28.9	0
107	620	29	0
107	620	29.1	0
107	620	29.2	0
107	620	29.3	0
107	620	29.4	0
107	620	29.5	0
107	620	29.6	0
107	620	29.7	0
107	620	29.8	0
107	620	29.9	0
107	620	30	0
107	620	30.1	0
107	620	30.2	0
107	620	30.3	0
107	620	30.4	0
107	620	30.5	0
107	620	30.6	0
107	620	30.7	0
107	620	30.8	0
107	620	30.9	0
107	620	31	0
107	620	31.1	0
107	620	31.2	0
107	620	31.3	0
107	620	31.4	0
107	620	31.5	0
107	620	31.6	0
107	620	31.7	0
107	620	31.8	0
107	620	31.9	0
107	620	32	0
107	620	32.1	0
107	620	32.2	0
107	620	32.3	0
107	620	32.4	0
107	620	32.5	0
107	620	32.6	0
107	620	32.7	0
107	620	32.8	0
107	620	32.9	0
107	620	33	0
107	620	33.1	0
107	620	33.2	0
107	620	33.3	0
107	620	33.4	0
107	620	33.5	0
107	620	33.6	0
107	620	33.7	0
107	620	33.8	0
107	620	33.9	0
107	620	34	0
107	620	34.1	0
107	620	34.2	0
107	620	34.3	0
107	620	34.4	0
107	620	34.5	0
107	620	34.6	0
107	620	34.7	0
107	620	34.8	0
107	620	34.9	0
107	620	35	0
107	724	35.1	8000
107	724	35.2	0
107	724	35.3	0
107	724	35.4	0
107	724	35.5	0
107	724	35.6	0
107	724	35.7	0
107	724	35.8	0
107	724	35.9	0
107	724	36	0
107	724	36.1	0
107	724	36.2	0
107	724	36.3	0
107	724	36.4	0
107	724	36.5	0
107	724	36.6	0
107	724	36.7	0
107	724	36.8	0
107	724	36.9	0
107	724	37	0
107	724	37.1	0
107	724	37.2	0
107	724	37.3	0
107	724	37.4	0
107	724	37.5	0
107	724	37.6	0
107	724	37.7	0
107	724	37.8	0
107	724	37.9	0
107	724	38	0
107	724	38.1	0
107	724	38.2	0
107	724	38.3	0
107	724	38.4	0
107	724	38.5	0
107	724	38.6	0
107	724	38.7	0
107	724	38.8	0
107	724	38.9	0
107	724	39	0
107	724	39.1	0
107	724	39.2	0
107	724	39.3	0
107	724	39.4	0
107	724	39.5	0
107	724	39.6	0
107	724	39.7	0
107	724	39.8	0
107	724	39.9	0
107	724	40	0
107	724	40.1	0
107	724	40.2	0
107	724	40.3	0
107	724	40.4	0
107	724	40.5	0
107	724	40.6	0
107	724	40.7	0
107	724	40.8	0
107	724	40.9	0
107	724	41	0
107	724	41.1	0
106	255	15.000152312069	100
106	432	25.000152238384	100
106	620	35.000152248415	100
139	275	15.00015270378	158
139	446	25.000152472141	158
139	658	35.00015281601	158
143	275	15.00015270378	130
143	446	25.000152472141	130
143	658	35.00015281601	130
142	275	15.00015270378	158
142	446	25.000152472141	158
142	658	35.00015281601	158
141	275	15.00015270378	158
141	446	25.000152472141	158
141	658	35.00015281601	158
140	275	15.00015270378	158
140	446	25.000152472141	158
140	658	35.00015281601	158
94	158	9.1	15
93	158	9.1	1
93	242	15.00000070378	3
93	274	15.00015270378	1
93	419	25.000000472141	3
93	445	25.000152472141	1
93	606	35.00000081601	3
93	657	35.00015281601	1
91	158	9.1	0
91	158	9.1	0
91	158	9.1	2
92	158	9.1	3
144	278	15.00015270378	108
144	449	25.000152472141	108
144	661	35.00015281601	108
145	278	15.00015270378	1
145	449	25.000152472141	2
145	661	35.00015281601	3
148	279	15.00015270378	0.00015270378
148	450	25.000152472141	0.000152472141
148	662	35.00015281601	0.00015281601
147	279	0.1	0
147	279	0.2	0
147	279	0.3	0
147	279	0.4	0
147	279	0.5	0
147	279	0.6	0
147	279	0.7	0
147	279	0.8	0
147	279	0.9	0
147	279	1	0
147	279	1.1	0
147	279	1.2	0
147	279	1.3	0
147	279	1.4	0
147	279	1.5	0
147	279	1.6	0
147	279	1.7	0
147	279	1.8	0
147	279	1.9	0
147	279	2	0
147	279	2.1	0
147	279	2.2	0
147	279	2.3	0
147	279	2.4	0
147	279	2.5	0
147	279	2.6	0
147	279	2.7	0
147	279	2.8	0
147	279	2.9	0
147	279	3	0
147	279	3.1	0
147	279	3.2	0
147	279	3.3	0
147	279	3.4	0
147	279	3.5	0
147	279	3.6	0
147	279	3.7	0
147	279	3.8	0
147	279	3.9	0
147	279	4	0
147	279	4.1	0
147	279	4.2	0
147	279	4.3	0
147	279	4.4	0
147	279	4.5	0
147	279	4.6	0
147	279	4.7	0
147	279	4.8	0
147	279	4.9	0
147	279	5	0
147	279	5.1	0
147	279	5.2	0
147	279	5.3	0
147	279	5.4	0
147	279	5.5	0
147	279	5.6	0
147	279	5.7	0
147	279	5.8	0
147	279	5.9	0
147	279	6	0
147	279	6.1	0
147	279	6.2	0
147	279	6.3	0
147	279	6.4	0
147	279	6.5	0
147	279	6.6	0
147	279	6.7	0
147	279	6.8	0
147	279	6.9	0
147	279	7	0
147	279	7.1	0
147	279	7.2	0
147	279	7.3	0
147	279	7.4	0
147	279	7.5	0
147	279	7.6	0
147	279	7.7	0
147	279	7.8	0
147	279	7.9	0
147	279	8	0
147	279	8.1	0
147	279	8.2	0
147	279	8.3	0
147	279	8.4	0
147	279	8.5	0
147	279	8.6	0
147	279	8.7	0
147	279	8.8	0
147	279	8.9	0
147	279	9	0
147	279	9.1	0
147	279	9.2	0
147	279	9.3	0
147	279	9.4	0
147	279	9.5	0
147	279	9.6	0
147	279	9.7	0
147	279	9.8	0
147	279	9.9	0
147	279	10	0
147	279	10.1	0
147	279	10.2	0
147	279	10.3	0
147	279	10.4	0
147	279	10.5	0
147	279	10.6	0
147	279	10.7	0
147	279	10.8	0
147	279	10.9	0
147	279	11	0
147	279	11.1	0
147	279	11.2	0
147	279	11.3	0
147	279	11.4	0
147	279	11.5	0
147	279	11.6	0
147	279	11.7	0
147	279	11.8	0
147	279	11.9	0
147	279	12	0
147	279	12.1	0
147	279	12.2	0
147	279	12.3	0
147	279	12.4	0
147	279	12.5	0
147	279	12.6	0
147	279	12.7	0
147	279	12.8	0
147	279	12.9	0
147	279	13	0
147	279	13.1	0
147	279	13.2	0
147	279	13.3	0
147	279	13.4	0
147	279	13.5	0
147	279	13.6	0
147	279	13.7	0
147	279	13.8	0
147	279	13.9	0
147	279	14	0
147	279	14.1	0
147	279	14.2	0
147	279	14.3	0
147	279	14.4	0
147	279	14.5	0
147	279	14.6	0
147	279	14.7	0
147	279	14.8	0
147	279	14.9	0
147	279	15	0
147	450	15.1	8000
147	450	15.2	0
147	450	15.3	0
147	450	15.4	0
147	450	15.5	0
147	450	15.6	0
147	450	15.7	0
147	450	15.8	0
147	450	15.9	0
147	450	16	0
147	450	16.1	0
147	450	16.2	0
147	450	16.3	0
147	450	16.4	0
147	450	16.5	0
147	450	16.6	0
147	450	16.7	0
147	450	16.8	0
147	450	16.9	0
147	450	17	0
147	450	17.1	0
147	450	17.2	0
147	450	17.3	0
147	450	17.4	0
147	450	17.5	0
147	450	17.6	0
147	450	17.7	0
147	450	17.8	0
147	450	17.9	0
147	450	18	0
147	450	18.1	0
147	450	18.2	0
147	450	18.3	0
147	450	18.4	0
147	450	18.5	0
147	450	18.6	0
147	450	18.7	0
147	450	18.8	0
147	450	18.9	0
147	450	19	0
147	450	19.1	0
147	450	19.2	0
147	450	19.3	0
147	450	19.4	0
147	450	19.5	0
147	450	19.6	0
147	450	19.7	0
147	450	19.8	0
147	450	19.9	0
147	450	20	0
147	450	20.1	0
147	450	20.2	0
147	450	20.3	0
147	450	20.4	0
147	450	20.5	0
147	450	20.6	0
147	450	20.7	0
147	450	20.8	0
147	450	20.9	0
147	450	21	0
147	450	21.1	0
147	450	21.2	0
147	450	21.3	0
147	450	21.4	0
147	450	21.5	0
147	450	21.6	0
147	450	21.7	0
147	450	21.8	0
147	450	21.9	0
147	450	22	0
147	450	22.1	0
147	450	22.2	0
147	450	22.3	0
147	450	22.4	0
147	450	22.5	0
147	450	22.6	0
147	450	22.7	0
147	450	22.8	0
147	450	22.9	0
147	450	23	0
147	450	23.1	0
147	450	23.2	0
147	450	23.3	0
147	450	23.4	0
147	450	23.5	0
147	450	23.6	0
147	450	23.7	0
147	450	23.8	0
147	450	23.9	0
147	450	24	0
147	450	24.1	0
147	450	24.2	0
147	450	24.3	0
147	450	24.4	0
147	450	24.5	0
147	450	24.6	0
147	450	24.7	0
147	450	24.8	0
147	450	24.9	0
147	450	25	0
147	662	25.1	8000
147	662	25.2	0
147	662	25.3	0
147	662	25.4	0
147	662	25.5	0
147	662	25.6	0
147	662	25.7	0
147	662	25.8	0
147	662	25.9	0
147	662	26	0
147	662	26.1	0
147	662	26.2	0
147	662	26.3	0
147	662	26.4	0
147	662	26.5	0
147	662	26.6	0
147	662	26.7	0
147	662	26.8	0
147	662	26.9	0
147	662	27	0
147	662	27.1	0
147	662	27.2	0
147	662	27.3	0
147	662	27.4	0
147	662	27.5	0
147	662	27.6	0
147	662	27.7	0
147	662	27.8	0
147	662	27.9	0
147	662	28	0
147	662	28.1	0
147	662	28.2	0
147	662	28.3	0
147	662	28.4	0
147	662	28.5	0
147	662	28.6	0
147	662	28.7	0
147	662	28.8	0
147	662	28.9	0
147	662	29	0
147	662	29.1	0
147	662	29.2	0
147	662	29.3	0
147	662	29.4	0
147	662	29.5	0
147	662	29.6	0
147	662	29.7	0
147	662	29.8	0
147	662	29.9	0
147	662	30	0
147	662	30.1	0
147	662	30.2	0
147	662	30.3	0
147	662	30.4	0
147	662	30.5	0
147	662	30.6	0
147	662	30.7	0
147	662	30.8	0
147	662	30.9	0
147	662	31	0
147	662	31.1	0
147	662	31.2	0
147	662	31.3	0
147	662	31.4	0
147	662	31.5	0
147	662	31.6	0
147	662	31.7	0
147	662	31.8	0
147	662	31.9	0
147	662	32	0
147	662	32.1	0
147	662	32.2	0
147	662	32.3	0
147	662	32.4	0
147	662	32.5	0
147	662	32.6	0
147	662	32.7	0
147	662	32.8	0
147	662	32.9	0
147	662	33	0
147	662	33.1	0
147	662	33.2	0
147	662	33.3	0
147	662	33.4	0
147	662	33.5	0
147	662	33.6	0
147	662	33.7	0
147	662	33.8	0
147	662	33.9	0
147	662	34	0
147	662	34.1	0
147	662	34.2	0
147	662	34.3	0
147	662	34.4	0
147	662	34.5	0
147	662	34.6	0
147	662	34.7	0
147	662	34.8	0
147	662	34.9	0
147	662	35	0
147	734	35.1	8000
147	734	35.2	0
147	734	35.3	0
147	734	35.4	0
147	734	35.5	0
147	734	35.6	0
147	734	35.7	0
147	734	35.8	0
147	734	35.9	0
147	734	36	0
147	734	36.1	0
147	734	36.2	0
147	734	36.3	0
147	734	36.4	0
147	734	36.5	0
147	734	36.6	0
147	734	36.7	0
147	734	36.8	0
147	734	36.9	0
147	734	37	0
147	734	37.1	0
147	734	37.2	0
147	734	37.3	0
147	734	37.4	0
147	734	37.5	0
147	734	37.6	0
147	734	37.7	0
147	734	37.8	0
147	734	37.9	0
147	734	38	0
147	734	38.1	0
147	734	38.2	0
147	734	38.3	0
147	734	38.4	0
147	734	38.5	0
147	734	38.6	0
147	734	38.7	0
147	734	38.8	0
147	734	38.9	0
147	734	39	0
147	734	39.1	0
147	734	39.2	0
147	734	39.3	0
147	734	39.4	0
147	734	39.5	0
147	734	39.6	0
147	734	39.7	0
147	734	39.8	0
147	734	39.9	0
147	734	40	0
147	734	40.1	0
147	734	40.2	0
147	734	40.3	0
147	734	40.4	0
147	734	40.5	0
147	734	40.6	0
147	734	40.7	0
147	734	40.8	0
147	734	40.9	0
147	734	41	0
147	734	41.1	0
147	734	41.2	0
147	734	41.3	0
147	734	41.4	0
147	734	41.5	0
147	734	41.6	0
147	734	41.7	0
147	734	41.8	0
147	734	41.9	0
147	734	42	0
147	734	42.1	0
146	279	15.00015270378	100
146	450	25.000152472141	100
146	662	35.00015281601	100
119	263	15.000152585192	158
119	458	25.000152547425	158
119	640	35.000152530411	158
119	790	45.000152221235	158
123	263	15.000152585192	130
123	458	25.000152547425	130
123	640	35.000152530411	130
123	790	45.000152221235	130
122	263	15.000152585192	158
122	458	25.000152547425	158
122	640	35.000152530411	158
122	790	45.000152221235	158
121	263	15.000152585192	158
121	458	25.000152547425	158
121	640	35.000152530411	158
121	790	45.000152221235	158
120	263	15.000152585192	158
120	458	25.000152547425	158
120	640	35.000152530411	158
120	790	45.000152221235	158
90	145	8.1	15
89	145	8.1	1
89	240	15.000000585192	3
89	262	15.000152585192	1
89	421	25.000000547425	3
89	457	25.000152547425	1
89	603	35.000000530411	3
89	639	35.000152530411	1
89	781	45.000000221235	3
89	789	45.000152221235	1
87	145	8.1	0
87	145	8.1	0
87	145	8.1	2
88	145	8.1	3
124	266	15.000152585192	108
124	461	25.000152547425	108
124	643	35.000152530411	108
124	793	45.000152221235	108
125	266	15.000152585192	1
125	461	25.000152547425	2
125	643	35.000152530411	3
125	793	45.000152221235	4
128	267	15.000152585192	0.000152585192
128	462	25.000152547425	0.000152547425
128	644	35.000152530411	0.000152530411
128	794	45.000152221235	0.000152221235
127	267	0.1	0
127	267	0.2	0
127	267	0.3	0
127	267	0.4	0
127	267	0.5	0
127	267	0.6	0
127	267	0.7	0
127	267	0.8	0
127	267	0.9	0
127	267	1	0
127	267	1.1	0
127	267	1.2	0
127	267	1.3	0
127	267	1.4	0
127	267	1.5	0
127	267	1.6	0
127	267	1.7	0
127	267	1.8	0
127	267	1.9	0
127	267	2	0
127	267	2.1	0
127	267	2.2	0
127	267	2.3	0
127	267	2.4	0
127	267	2.5	0
127	267	2.6	0
127	267	2.7	0
127	267	2.8	0
127	267	2.9	0
127	267	3	0
127	267	3.1	0
127	267	3.2	0
127	267	3.3	0
127	267	3.4	0
127	267	3.5	0
127	267	3.6	0
127	267	3.7	0
127	267	3.8	0
127	267	3.9	0
127	267	4	0
127	267	4.1	0
127	267	4.2	0
127	267	4.3	0
127	267	4.4	0
127	267	4.5	0
127	267	4.6	0
127	267	4.7	0
127	267	4.8	0
127	267	4.9	0
127	267	5	0
127	267	5.1	0
127	267	5.2	0
127	267	5.3	0
127	267	5.4	0
127	267	5.5	0
127	267	5.6	0
127	267	5.7	0
127	267	5.8	0
127	267	5.9	0
127	267	6	0
127	267	6.1	0
127	267	6.2	0
127	267	6.3	0
127	267	6.4	0
127	267	6.5	0
127	267	6.6	0
127	267	6.7	0
127	267	6.8	0
127	267	6.9	0
127	267	7	0
127	267	7.1	0
127	267	7.2	0
127	267	7.3	0
127	267	7.4	0
127	267	7.5	0
127	267	7.6	0
127	267	7.7	0
127	267	7.8	0
127	267	7.9	0
127	267	8	0
127	267	8.1	0
127	267	8.2	0
127	267	8.3	0
127	267	8.4	0
127	267	8.5	0
127	267	8.6	0
127	267	8.7	0
127	267	8.8	0
127	267	8.9	0
127	267	9	0
127	267	9.1	0
127	267	9.2	0
127	267	9.3	0
127	267	9.4	0
127	267	9.5	0
127	267	9.6	0
127	267	9.7	0
127	267	9.8	0
127	267	9.9	0
127	267	10	0
127	267	10.1	0
127	267	10.2	0
127	267	10.3	0
127	267	10.4	0
127	267	10.5	0
127	267	10.6	0
127	267	10.7	0
127	267	10.8	0
127	267	10.9	0
127	267	11	0
127	267	11.1	0
127	267	11.2	0
127	267	11.3	0
127	267	11.4	0
127	267	11.5	0
127	267	11.6	0
127	267	11.7	0
127	267	11.8	0
127	267	11.9	0
127	267	12	0
127	267	12.1	0
127	267	12.2	0
127	267	12.3	0
127	267	12.4	0
127	267	12.5	0
127	267	12.6	0
127	267	12.7	0
127	267	12.8	0
127	267	12.9	0
127	267	13	0
127	267	13.1	0
127	267	13.2	0
127	267	13.3	0
127	267	13.4	0
127	267	13.5	0
127	267	13.6	0
127	267	13.7	0
127	267	13.8	0
127	267	13.9	0
127	267	14	0
127	267	14.1	0
127	267	14.2	0
127	267	14.3	0
127	267	14.4	0
127	267	14.5	0
127	267	14.6	0
127	267	14.7	0
127	267	14.8	0
127	267	14.9	0
127	267	15	0
127	462	15.1	8000
127	462	15.2	0
127	462	15.3	0
127	462	15.4	0
127	462	15.5	0
127	462	15.6	0
127	462	15.7	0
127	462	15.8	0
127	462	15.9	0
127	462	16	0
127	462	16.1	0
127	462	16.2	0
127	462	16.3	0
127	462	16.4	0
127	462	16.5	0
127	462	16.6	0
127	462	16.7	0
127	462	16.8	0
127	462	16.9	0
127	462	17	0
127	462	17.1	0
127	462	17.2	0
127	462	17.3	0
127	462	17.4	0
127	462	17.5	0
127	462	17.6	0
127	462	17.7	0
127	462	17.8	0
127	462	17.9	0
127	462	18	0
127	462	18.1	0
127	462	18.2	0
127	462	18.3	0
127	462	18.4	0
127	462	18.5	0
127	462	18.6	0
127	462	18.7	0
127	462	18.8	0
127	462	18.9	0
127	462	19	0
127	462	19.1	0
127	462	19.2	0
127	462	19.3	0
127	462	19.4	0
127	462	19.5	0
127	462	19.6	0
127	462	19.7	0
127	462	19.8	0
127	462	19.9	0
127	462	20	0
127	462	20.1	0
127	462	20.2	0
127	462	20.3	0
127	462	20.4	0
127	462	20.5	0
127	462	20.6	0
127	462	20.7	0
127	462	20.8	0
127	462	20.9	0
127	462	21	0
127	462	21.1	0
127	462	21.2	0
127	462	21.3	0
127	462	21.4	0
127	462	21.5	0
127	462	21.6	0
127	462	21.7	0
127	462	21.8	0
127	462	21.9	0
127	462	22	0
127	462	22.1	0
127	462	22.2	0
127	462	22.3	0
127	462	22.4	0
127	462	22.5	0
127	462	22.6	0
127	462	22.7	0
127	462	22.8	0
127	462	22.9	0
127	462	23	0
127	462	23.1	0
127	462	23.2	0
127	462	23.3	0
127	462	23.4	0
127	462	23.5	0
127	462	23.6	0
127	462	23.7	0
127	462	23.8	0
127	462	23.9	0
127	462	24	0
127	462	24.1	0
127	462	24.2	0
127	462	24.3	0
127	462	24.4	0
127	462	24.5	0
127	462	24.6	0
127	462	24.7	0
127	462	24.8	0
127	462	24.9	0
127	462	25	0
127	644	25.1	8000
127	644	25.2	0
127	644	25.3	0
127	644	25.4	0
127	644	25.5	0
127	644	25.6	0
127	644	25.7	0
127	644	25.8	0
127	644	25.9	0
127	644	26	0
127	644	26.1	0
127	644	26.2	0
127	644	26.3	0
127	644	26.4	0
127	644	26.5	0
127	644	26.6	0
127	644	26.7	0
127	644	26.8	0
127	644	26.9	0
127	644	27	0
127	644	27.1	0
127	644	27.2	0
127	644	27.3	0
127	644	27.4	0
127	644	27.5	0
127	644	27.6	0
127	644	27.7	0
127	644	27.8	0
127	644	27.9	0
127	644	28	0
127	644	28.1	0
127	644	28.2	0
127	644	28.3	0
127	644	28.4	0
127	644	28.5	0
127	644	28.6	0
127	644	28.7	0
127	644	28.8	0
127	644	28.9	0
127	644	29	0
127	644	29.1	0
127	644	29.2	0
127	644	29.3	0
127	644	29.4	0
127	644	29.5	0
127	644	29.6	0
127	644	29.7	0
127	644	29.8	0
127	644	29.9	0
127	644	30	0
127	644	30.1	0
127	644	30.2	0
127	644	30.3	0
127	644	30.4	0
127	644	30.5	0
127	644	30.6	0
127	644	30.7	0
127	644	30.8	0
127	644	30.9	0
127	644	31	0
127	644	31.1	0
127	644	31.2	0
127	644	31.3	0
127	644	31.4	0
127	644	31.5	0
127	644	31.6	0
127	644	31.7	0
127	644	31.8	0
127	644	31.9	0
127	644	32	0
127	644	32.1	0
127	644	32.2	0
127	644	32.3	0
127	644	32.4	0
127	644	32.5	0
127	644	32.6	0
127	644	32.7	0
127	644	32.8	0
127	644	32.9	0
127	644	33	0
127	644	33.1	0
127	644	33.2	0
127	644	33.3	0
127	644	33.4	0
127	644	33.5	0
127	644	33.6	0
127	644	33.7	0
127	644	33.8	0
127	644	33.9	0
127	644	34	0
127	644	34.1	0
127	644	34.2	0
127	644	34.3	0
127	644	34.4	0
127	644	34.5	0
127	644	34.6	0
127	644	34.7	0
127	644	34.8	0
127	644	34.9	0
127	644	35	0
127	794	35.1	8000
127	794	35.2	0
127	794	35.3	0
127	794	35.4	0
127	794	35.5	0
127	794	35.6	0
127	794	35.7	0
127	794	35.8	0
127	794	35.9	0
127	794	36	0
127	794	36.1	0
127	794	36.2	0
127	794	36.3	0
127	794	36.4	0
127	794	36.5	0
127	794	36.6	0
127	794	36.7	0
127	794	36.8	0
127	794	36.9	0
127	794	37	0
127	794	37.1	0
127	794	37.2	0
127	794	37.3	0
127	794	37.4	0
127	794	37.5	0
127	794	37.6	0
127	794	37.7	0
127	794	37.8	0
127	794	37.9	0
127	794	38	0
127	794	38.1	0
127	794	38.2	0
127	794	38.3	0
127	794	38.4	0
127	794	38.5	0
127	794	38.6	0
127	794	38.7	0
127	794	38.8	0
127	794	38.9	0
127	794	39	0
127	794	39.1	0
127	794	39.2	0
127	794	39.3	0
127	794	39.4	0
127	794	39.5	0
127	794	39.6	0
127	794	39.7	0
127	794	39.8	0
127	794	39.9	0
127	794	40	0
127	794	40.1	0
127	794	40.2	0
127	794	40.3	0
127	794	40.4	0
127	794	40.5	0
127	794	40.6	0
127	794	40.7	0
127	794	40.8	0
127	794	40.9	0
127	794	41	0
127	794	41.1	0
127	794	41.2	0
127	794	41.3	0
127	794	41.4	0
127	794	41.5	0
127	794	41.6	0
127	794	41.7	0
127	794	41.8	0
127	794	41.9	0
127	794	42	0
127	794	42.1	0
127	794	42.2	0
127	794	42.3	0
127	794	42.4	0
127	794	42.5	0
127	794	42.6	0
127	794	42.7	0
127	794	42.8	0
127	794	42.9	0
127	794	43	0
127	794	43.1	0
127	794	43.2	0
127	794	43.3	0
127	794	43.4	0
127	794	43.5	0
127	794	43.6	0
127	794	43.7	0
127	794	43.8	0
127	794	43.9	0
127	794	44	0
127	794	44.1	0
127	794	44.2	0
127	794	44.3	0
127	794	44.4	0
127	794	44.5	0
127	794	44.6	0
127	794	44.7	0
127	794	44.8	0
127	794	44.9	0
127	794	45	0
127	911	45.1	8000
127	911	45.2	0
127	911	45.3	0
127	911	45.4	0
127	911	45.5	0
127	911	45.6	0
127	911	45.7	0
127	911	45.8	0
127	911	45.9	0
127	911	46	0
127	911	46.1	0
127	911	46.2	0
127	911	46.3	0
127	911	46.4	0
127	911	46.5	0
127	911	46.6	0
127	911	46.7	0
127	911	46.8	0
127	911	46.9	0
127	911	47	0
127	911	47.1	0
127	911	47.2	0
127	911	47.3	0
127	911	47.4	0
127	911	47.5	0
127	911	47.6	0
127	911	47.7	0
127	911	47.8	0
127	911	47.9	0
127	911	48	0
127	911	48.1	0
127	911	48.2	0
127	911	48.3	0
127	911	48.4	0
127	911	48.5	0
127	911	48.6	0
127	911	48.7	0
127	911	48.8	0
127	911	48.9	0
127	911	49	0
127	911	49.1	0
127	911	49.2	0
127	911	49.3	0
127	911	49.4	0
127	911	49.5	0
127	911	49.6	0
127	911	49.7	0
127	911	49.8	0
127	911	49.9	0
127	911	50	0
127	911	50.1	0
127	911	50.2	0
127	911	50.3	0
127	911	50.4	0
127	911	50.5	0
127	911	50.6	0
127	911	50.7	0
127	911	50.8	0
127	911	50.9	0
127	911	51	0
127	911	51.1	0
127	911	51.2	0
127	911	51.3	0
127	911	51.4	0
127	911	51.5	0
127	911	51.6	0
127	911	51.7	0
127	911	51.8	0
127	911	51.9	0
127	911	52	0
127	911	52.1	0
127	911	52.2	0
127	911	52.3	0
127	911	52.4	0
127	911	52.5	0
127	911	52.6	0
127	911	52.7	0
127	911	52.8	0
127	911	52.9	0
127	911	53	0
127	911	53.1	0
127	911	53.2	0
127	911	53.3	0
127	911	53.4	0
127	911	53.5	0
127	911	53.6	0
127	911	53.7	0
127	911	53.8	0
127	911	53.9	0
127	911	54	0
127	911	54.1	0
126	267	15.000152585192	100
126	462	25.000152547425	100
126	644	35.000152530411	100
126	794	45.000152221235	100
109	257	15.000152557367	158
109	452	25.00015253232	158
109	652	35.00015262951	158
113	257	15.000152557367	130
113	452	25.00015253232	130
113	652	35.00015262951	130
112	257	15.000152557367	158
112	452	25.00015253232	158
112	652	35.00015262951	158
111	257	15.000152557367	158
111	452	25.00015253232	158
111	652	35.00015262951	158
110	257	15.000152557367	158
110	452	25.00015253232	158
110	652	35.00015262951	158
78	106	5.1	15
77	106	5.1	1
77	239	15.000000557367	3
77	256	15.000152557367	1
77	420	25.00000053232	3
77	451	25.00015253232	1
77	605	35.00000062951	3
77	651	35.00015262951	1
75	106	5.1	0
75	106	5.1	0
75	106	5.1	2
76	106	5.1	3
114	260	15.000152557367	108
114	455	25.00015253232	108
114	655	35.00015262951	108
115	260	15.000152557367	1
115	455	25.00015253232	2
115	655	35.00015262951	3
118	261	15.000152557367	0.000152557367
118	456	25.00015253232	0.00015253232
118	656	35.00015262951	0.00015262951
117	261	0.1	0
117	261	0.2	0
117	261	0.3	0
117	261	0.4	0
117	261	0.5	0
117	261	0.6	0
117	261	0.7	0
117	261	0.8	0
117	261	0.9	0
117	261	1	0
117	261	1.1	0
117	261	1.2	0
117	261	1.3	0
117	261	1.4	0
117	261	1.5	0
117	261	1.6	0
117	261	1.7	0
117	261	1.8	0
117	261	1.9	0
117	261	2	0
117	261	2.1	0
117	261	2.2	0
117	261	2.3	0
117	261	2.4	0
117	261	2.5	0
117	261	2.6	0
117	261	2.7	0
117	261	2.8	0
117	261	2.9	0
117	261	3	0
117	261	3.1	0
117	261	3.2	0
117	261	3.3	0
117	261	3.4	0
117	261	3.5	0
117	261	3.6	0
117	261	3.7	0
117	261	3.8	0
117	261	3.9	0
117	261	4	0
117	261	4.1	0
117	261	4.2	0
117	261	4.3	0
117	261	4.4	0
117	261	4.5	0
117	261	4.6	0
117	261	4.7	0
117	261	4.8	0
117	261	4.9	0
117	261	5	0
117	261	5.1	0
117	261	5.2	0
117	261	5.3	0
117	261	5.4	0
117	261	5.5	0
117	261	5.6	0
117	261	5.7	0
117	261	5.8	0
117	261	5.9	0
117	261	6	0
117	261	6.1	0
117	261	6.2	0
117	261	6.3	0
117	261	6.4	0
117	261	6.5	0
117	261	6.6	0
117	261	6.7	0
117	261	6.8	0
117	261	6.9	0
117	261	7	0
117	261	7.1	0
117	261	7.2	0
117	261	7.3	0
117	261	7.4	0
117	261	7.5	0
117	261	7.6	0
117	261	7.7	0
117	261	7.8	0
117	261	7.9	0
117	261	8	0
117	261	8.1	0
117	261	8.2	0
117	261	8.3	0
117	261	8.4	0
117	261	8.5	0
117	261	8.6	0
117	261	8.7	0
117	261	8.8	0
117	261	8.9	0
117	261	9	0
117	261	9.1	0
117	261	9.2	0
117	261	9.3	0
117	261	9.4	0
117	261	9.5	0
117	261	9.6	0
117	261	9.7	0
117	261	9.8	0
117	261	9.9	0
117	261	10	0
117	261	10.1	0
117	261	10.2	0
117	261	10.3	0
117	261	10.4	0
117	261	10.5	0
117	261	10.6	0
117	261	10.7	0
117	261	10.8	0
117	261	10.9	0
117	261	11	0
117	261	11.1	0
117	261	11.2	0
117	261	11.3	0
117	261	11.4	0
117	261	11.5	0
117	261	11.6	0
117	261	11.7	0
117	261	11.8	0
117	261	11.9	0
117	261	12	0
117	261	12.1	0
117	261	12.2	0
117	261	12.3	0
117	261	12.4	0
117	261	12.5	0
117	261	12.6	0
117	261	12.7	0
117	261	12.8	0
117	261	12.9	0
117	261	13	0
117	261	13.1	0
117	261	13.2	0
117	261	13.3	0
117	261	13.4	0
117	261	13.5	0
117	261	13.6	0
117	261	13.7	0
117	261	13.8	0
117	261	13.9	0
117	261	14	0
117	261	14.1	0
117	261	14.2	0
117	261	14.3	0
117	261	14.4	0
117	261	14.5	0
117	261	14.6	0
117	261	14.7	0
117	261	14.8	0
117	261	14.9	0
117	261	15	0
117	456	15.1	8000
117	456	15.2	0
117	456	15.3	0
117	456	15.4	0
117	456	15.5	0
117	456	15.6	0
117	456	15.7	0
117	456	15.8	0
117	456	15.9	0
117	456	16	0
117	456	16.1	0
117	456	16.2	0
117	456	16.3	0
117	456	16.4	0
117	456	16.5	0
117	456	16.6	0
117	456	16.7	0
117	456	16.8	0
117	456	16.9	0
117	456	17	0
117	456	17.1	0
117	456	17.2	0
117	456	17.3	0
117	456	17.4	0
117	456	17.5	0
117	456	17.6	0
117	456	17.7	0
117	456	17.8	0
117	456	17.9	0
117	456	18	0
117	456	18.1	0
117	456	18.2	0
117	456	18.3	0
117	456	18.4	0
117	456	18.5	0
117	456	18.6	0
117	456	18.7	0
117	456	18.8	0
117	456	18.9	0
117	456	19	0
117	456	19.1	0
117	456	19.2	0
117	456	19.3	0
117	456	19.4	0
117	456	19.5	0
117	456	19.6	0
117	456	19.7	0
117	456	19.8	0
117	456	19.9	0
117	456	20	0
117	456	20.1	0
117	456	20.2	0
117	456	20.3	0
117	456	20.4	0
117	456	20.5	0
117	456	20.6	0
117	456	20.7	0
117	456	20.8	0
117	456	20.9	0
117	456	21	0
117	456	21.1	0
117	456	21.2	0
117	456	21.3	0
117	456	21.4	0
117	456	21.5	0
117	456	21.6	0
117	456	21.7	0
117	456	21.8	0
117	456	21.9	0
117	456	22	0
117	456	22.1	0
117	456	22.2	0
117	456	22.3	0
117	456	22.4	0
117	456	22.5	0
117	456	22.6	0
117	456	22.7	0
117	456	22.8	0
117	456	22.9	0
117	456	23	0
117	456	23.1	0
117	456	23.2	0
117	456	23.3	0
117	456	23.4	0
117	456	23.5	0
117	456	23.6	0
117	456	23.7	0
117	456	23.8	0
117	456	23.9	0
117	456	24	0
117	456	24.1	0
117	456	24.2	0
117	456	24.3	0
117	456	24.4	0
117	456	24.5	0
117	456	24.6	0
117	456	24.7	0
117	456	24.8	0
117	456	24.9	0
117	456	25	0
117	656	25.1	8000
117	656	25.2	0
117	656	25.3	0
117	656	25.4	0
117	656	25.5	0
117	656	25.6	0
117	656	25.7	0
117	656	25.8	0
117	656	25.9	0
117	656	26	0
117	656	26.1	0
117	656	26.2	0
117	656	26.3	0
117	656	26.4	0
117	656	26.5	0
117	656	26.6	0
117	656	26.7	0
117	656	26.8	0
117	656	26.9	0
117	656	27	0
117	656	27.1	0
117	656	27.2	0
117	656	27.3	0
117	656	27.4	0
117	656	27.5	0
117	656	27.6	0
117	656	27.7	0
117	656	27.8	0
117	656	27.9	0
117	656	28	0
117	656	28.1	0
117	656	28.2	0
117	656	28.3	0
117	656	28.4	0
117	656	28.5	0
117	656	28.6	0
117	656	28.7	0
117	656	28.8	0
117	656	28.9	0
117	656	29	0
117	656	29.1	0
117	656	29.2	0
117	656	29.3	0
117	656	29.4	0
117	656	29.5	0
117	656	29.6	0
117	656	29.7	0
117	656	29.8	0
117	656	29.9	0
117	656	30	0
117	656	30.1	0
117	656	30.2	0
117	656	30.3	0
117	656	30.4	0
117	656	30.5	0
117	656	30.6	0
117	656	30.7	0
117	656	30.8	0
117	656	30.9	0
117	656	31	0
117	656	31.1	0
117	656	31.2	0
117	656	31.3	0
117	656	31.4	0
117	656	31.5	0
117	656	31.6	0
117	656	31.7	0
117	656	31.8	0
117	656	31.9	0
117	656	32	0
117	656	32.1	0
117	656	32.2	0
117	656	32.3	0
117	656	32.4	0
117	656	32.5	0
117	656	32.6	0
117	656	32.7	0
117	656	32.8	0
117	656	32.9	0
117	656	33	0
117	656	33.1	0
117	656	33.2	0
117	656	33.3	0
117	656	33.4	0
117	656	33.5	0
117	656	33.6	0
117	656	33.7	0
117	656	33.8	0
117	656	33.9	0
117	656	34	0
117	656	34.1	0
117	656	34.2	0
117	656	34.3	0
117	656	34.4	0
117	656	34.5	0
117	656	34.6	0
117	656	34.7	0
117	656	34.8	0
117	656	34.9	0
117	656	35	0
117	1052	35.1	8000
117	1052	35.2	0
117	1052	35.3	0
117	1052	35.4	0
117	1052	35.5	0
117	1052	35.6	0
117	1052	35.7	0
117	1052	35.8	0
117	1052	35.9	0
117	1052	36	0
117	1052	36.1	0
117	1052	36.2	0
117	1052	36.3	0
117	1052	36.4	0
117	1052	36.5	0
117	1052	36.6	0
117	1052	36.7	0
117	1052	36.8	0
117	1052	36.9	0
117	1052	37	0
117	1052	37.1	0
117	1052	37.2	0
117	1052	37.3	0
117	1052	37.4	0
117	1052	37.5	0
117	1052	37.6	0
117	1052	37.7	0
117	1052	37.8	0
117	1052	37.9	0
117	1052	38	0
117	1052	38.1	0
117	1052	38.2	0
117	1052	38.3	0
117	1052	38.4	0
117	1052	38.5	0
117	1052	38.6	0
117	1052	38.7	0
117	1052	38.8	0
117	1052	38.9	0
117	1052	39	0
117	1052	39.1	0
117	1052	39.2	0
117	1052	39.3	0
117	1052	39.4	0
117	1052	39.5	0
117	1052	39.6	0
117	1052	39.7	0
117	1052	39.8	0
117	1052	39.9	0
117	1052	40	0
117	1052	40.1	0
117	1052	40.2	0
117	1052	40.3	0
117	1052	40.4	0
117	1052	40.5	0
117	1052	40.6	0
117	1052	40.7	0
117	1052	40.8	0
117	1052	40.9	0
117	1052	41	0
117	1052	41.1	0
117	1052	41.2	0
117	1052	41.3	0
117	1052	41.4	0
117	1052	41.5	0
117	1052	41.6	0
117	1052	41.7	0
117	1052	41.8	0
117	1052	41.9	0
117	1052	42	0
117	1052	42.1	0
117	1052	42.2	0
117	1052	42.3	0
117	1052	42.4	0
117	1052	42.5	0
117	1052	42.6	0
117	1052	42.7	0
117	1052	42.8	0
117	1052	42.9	0
117	1052	43	0
117	1052	43.1	0
117	1052	43.2	0
117	1052	43.3	0
117	1052	43.4	0
117	1052	43.5	0
117	1052	43.6	0
117	1052	43.7	0
117	1052	43.8	0
117	1052	43.9	0
117	1052	44	0
117	1052	44.1	0
117	1052	44.2	0
117	1052	44.3	0
117	1052	44.4	0
117	1052	44.5	0
117	1052	44.6	0
117	1052	44.7	0
117	1052	44.8	0
117	1052	44.9	0
117	1052	45	0
117	1052	45.1	0
117	1052	45.2	0
117	1052	45.3	0
117	1052	45.4	0
117	1052	45.5	0
117	1052	45.6	0
117	1052	45.7	0
117	1052	45.8	0
117	1052	45.9	0
117	1052	46	0
117	1052	46.1	0
117	1052	46.2	0
117	1052	46.3	0
117	1052	46.4	0
117	1052	46.5	0
117	1052	46.6	0
117	1052	46.7	0
117	1052	46.8	0
117	1052	46.9	0
117	1052	47	0
117	1052	47.1	0
117	1052	47.2	0
117	1052	47.3	0
117	1052	47.4	0
117	1052	47.5	0
117	1052	47.6	0
117	1052	47.7	0
117	1052	47.8	0
117	1052	47.9	0
117	1052	48	0
117	1052	48.1	0
117	1052	48.2	0
117	1052	48.3	0
117	1052	48.4	0
117	1052	48.5	0
117	1052	48.6	0
117	1052	48.7	0
117	1052	48.8	0
117	1052	48.9	0
117	1052	49	0
117	1052	49.1	0
117	1052	49.2	0
117	1052	49.3	0
117	1052	49.4	0
117	1052	49.5	0
117	1052	49.6	0
117	1052	49.7	0
117	1052	49.8	0
117	1052	49.9	0
117	1052	50	0
117	1052	50.1	0
117	1052	50.2	0
117	1052	50.3	0
117	1052	50.4	0
117	1052	50.5	0
117	1052	50.6	0
117	1052	50.7	0
117	1052	50.8	0
117	1052	50.9	0
117	1052	51	0
117	1052	51.1	0
117	1052	51.2	0
117	1052	51.3	0
117	1052	51.4	0
117	1052	51.5	0
117	1052	51.6	0
117	1052	51.7	0
117	1052	51.8	0
117	1052	51.9	0
117	1052	52	0
117	1052	52.1	0
117	1052	52.2	0
117	1052	52.3	0
117	1052	52.4	0
117	1052	52.5	0
117	1052	52.6	0
117	1052	52.7	0
117	1052	52.8	0
117	1052	52.9	0
117	1052	53	0
117	1052	53.1	0
117	1052	53.2	0
117	1052	53.3	0
117	1052	53.4	0
117	1052	53.5	0
117	1052	53.6	0
117	1052	53.7	0
117	1052	53.8	0
117	1052	53.9	0
117	1052	54	0
117	1052	54.1	0
117	1052	54.2	0
117	1052	54.3	0
117	1052	54.4	0
117	1052	54.5	0
117	1052	54.6	0
117	1052	54.7	0
117	1052	54.8	0
117	1052	54.9	0
117	1052	55	0
117	1052	55.1	0
117	1052	55.2	0
117	1052	55.3	0
117	1052	55.4	0
117	1052	55.5	0
117	1052	55.6	0
117	1052	55.7	0
117	1052	55.8	0
117	1052	55.9	0
117	1052	56	0
117	1052	56.1	0
117	1052	56.2	0
117	1052	56.3	0
117	1052	56.4	0
117	1052	56.5	0
117	1052	56.6	0
117	1052	56.7	0
117	1052	56.8	0
117	1052	56.9	0
117	1052	57	0
117	1052	57.1	0
117	1052	57.2	0
117	1052	57.3	0
117	1052	57.4	0
117	1052	57.5	0
117	1052	57.6	0
117	1052	57.7	0
117	1052	57.8	0
117	1052	57.9	0
117	1052	58	0
117	1052	58.1	0
117	1052	58.2	0
117	1052	58.3	0
117	1052	58.4	0
117	1052	58.5	0
117	1052	58.6	0
117	1052	58.7	0
117	1052	58.8	0
117	1052	58.9	0
117	1052	59	0
117	1052	59.1	0
117	1052	59.2	0
117	1052	59.3	0
117	1052	59.4	0
117	1052	59.5	0
117	1052	59.6	0
117	1052	59.7	0
117	1052	59.8	0
117	1052	59.9	0
117	1052	60	0
117	1052	60.1	0
117	1052	60.2	0
117	1052	60.3	0
117	1052	60.4	0
117	1052	60.5	0
117	1052	60.6	0
117	1052	60.7	0
117	1052	60.8	0
117	1052	60.9	0
117	1052	61	0
117	1052	61.1	0
117	1052	61.2	0
117	1052	61.3	0
117	1052	61.4	0
117	1052	61.5	0
117	1052	61.6	0
117	1052	61.7	0
117	1052	61.8	0
117	1052	61.9	0
117	1052	62	0
117	1052	62.1	0
117	1052	62.2	0
117	1052	62.3	0
117	1052	62.4	0
117	1052	62.5	0
117	1052	62.6	0
117	1052	62.7	0
117	1052	62.8	0
117	1052	62.9	0
117	1052	63	0
117	1052	63.1	0
116	261	15.000152557367	100
116	456	25.00015253232	100
116	656	35.00015262951	100
129	269	15.00015268929	158
129	464	25.000152583157	158
129	610	35.00015219666	158
129	808	45.000152566821	158
129	965	55.000152864519	158
129	1116	65.000152697811	158
133	269	15.00015268929	130
133	464	25.000152583157	130
133	610	35.00015219666	130
133	808	45.000152566821	130
133	965	55.000152864519	130
133	1116	65.000152697811	130
132	269	15.00015268929	158
132	464	25.000152583157	158
132	610	35.00015219666	158
132	808	45.000152566821	158
132	965	55.000152864519	158
132	1116	65.000152697811	158
131	269	15.00015268929	158
131	464	25.000152583157	158
131	610	35.00015219666	158
131	808	45.000152566821	158
131	965	55.000152864519	158
131	1116	65.000152697811	158
130	269	15.00015268929	158
130	464	25.000152583157	158
130	610	35.00015219666	158
130	808	45.000152566821	158
130	965	55.000152864519	158
130	1116	65.000152697811	158
82	119	6.1	15
81	119	6.1	1
81	241	15.00000068929	3
81	268	15.00015268929	1
81	422	25.000000583157	3
81	463	25.000152583157	1
81	598	35.00000019666	3
81	609	35.00015219666	1
81	784	45.000000566821	3
81	807	45.000152566821	1
81	942	55.000000864519	3
81	964	55.000152864519	1
81	1094	65.000000697811	3
81	1115	65.000152697811	1
79	119	6.1	0
79	119	6.1	0
79	119	6.1	2
80	119	6.1	3
134	272	15.00015268929	108
134	467	25.000152583157	108
134	613	35.00015219666	108
134	811	45.000152566821	108
134	968	55.000152864519	108
134	1119	65.000152697811	108
135	272	15.00015268929	1
135	467	25.000152583157	2
135	613	35.00015219666	3
135	811	45.000152566821	4
135	968	55.000152864519	5
135	1119	65.000152697811	6
138	273	15.00015268929	0.00015268929
138	468	25.000152583157	0.000152583157
138	614	35.00015219666	0.00015219666
138	812	45.000152566821	0.000152566821
138	969	55.000152864519	0.000152864519
138	1120	65.000152697811	0.000152697811
137	273	0.1	0
137	273	0.2	0
137	273	0.3	0
137	273	0.4	0
137	273	0.5	0
137	273	0.6	0
137	273	0.7	0
137	273	0.8	0
137	273	0.9	0
137	273	1	0
137	273	1.1	0
137	273	1.2	0
137	273	1.3	0
137	273	1.4	0
137	273	1.5	0
137	273	1.6	0
137	273	1.7	0
137	273	1.8	0
137	273	1.9	0
137	273	2	0
137	273	2.1	0
137	273	2.2	0
137	273	2.3	0
137	273	2.4	0
137	273	2.5	0
137	273	2.6	0
137	273	2.7	0
137	273	2.8	0
137	273	2.9	0
137	273	3	0
137	273	3.1	0
137	273	3.2	0
137	273	3.3	0
137	273	3.4	0
137	273	3.5	0
137	273	3.6	0
137	273	3.7	0
137	273	3.8	0
137	273	3.9	0
137	273	4	0
137	273	4.1	0
137	273	4.2	0
137	273	4.3	0
137	273	4.4	0
137	273	4.5	0
137	273	4.6	0
137	273	4.7	0
137	273	4.8	0
137	273	4.9	0
137	273	5	0
137	273	5.1	0
137	273	5.2	0
137	273	5.3	0
137	273	5.4	0
137	273	5.5	0
137	273	5.6	0
137	273	5.7	0
137	273	5.8	0
137	273	5.9	0
137	273	6	0
137	273	6.1	0
137	273	6.2	0
137	273	6.3	0
137	273	6.4	0
137	273	6.5	0
137	273	6.6	0
137	273	6.7	0
137	273	6.8	0
137	273	6.9	0
137	273	7	0
137	273	7.1	0
137	273	7.2	0
137	273	7.3	0
137	273	7.4	0
137	273	7.5	0
137	273	7.6	0
137	273	7.7	0
137	273	7.8	0
137	273	7.9	0
137	273	8	0
137	273	8.1	0
137	273	8.2	0
137	273	8.3	0
137	273	8.4	0
137	273	8.5	0
137	273	8.6	0
137	273	8.7	0
137	273	8.8	0
137	273	8.9	0
137	273	9	0
137	273	9.1	0
137	273	9.2	0
137	273	9.3	0
137	273	9.4	0
137	273	9.5	0
137	273	9.6	0
137	273	9.7	0
137	273	9.8	0
137	273	9.9	0
137	273	10	0
137	273	10.1	0
137	273	10.2	0
137	273	10.3	0
137	273	10.4	0
137	273	10.5	0
137	273	10.6	0
137	273	10.7	0
137	273	10.8	0
137	273	10.9	0
137	273	11	0
137	273	11.1	0
137	273	11.2	0
137	273	11.3	0
137	273	11.4	0
137	273	11.5	0
137	273	11.6	0
137	273	11.7	0
137	273	11.8	0
137	273	11.9	0
137	273	12	0
137	273	12.1	0
137	273	12.2	0
137	273	12.3	0
137	273	12.4	0
137	273	12.5	0
137	273	12.6	0
137	273	12.7	0
137	273	12.8	0
137	273	12.9	0
137	273	13	0
137	273	13.1	0
137	273	13.2	0
137	273	13.3	0
137	273	13.4	0
137	273	13.5	0
137	273	13.6	0
137	273	13.7	0
137	273	13.8	0
137	273	13.9	0
137	273	14	0
137	273	14.1	0
137	273	14.2	0
137	273	14.3	0
137	273	14.4	0
137	273	14.5	0
137	273	14.6	0
137	273	14.7	0
137	273	14.8	0
137	273	14.9	0
137	273	15	0
137	468	15.1	8000
137	468	15.2	0
137	468	15.3	0
137	468	15.4	0
137	468	15.5	0
137	468	15.6	0
137	468	15.7	0
137	468	15.8	0
137	468	15.9	0
137	468	16	0
137	468	16.1	0
137	468	16.2	0
137	468	16.3	0
137	468	16.4	0
137	468	16.5	0
137	468	16.6	0
137	468	16.7	0
137	468	16.8	0
137	468	16.9	0
137	468	17	0
137	468	17.1	0
137	468	17.2	0
137	468	17.3	0
137	468	17.4	0
137	468	17.5	0
137	468	17.6	0
137	468	17.7	0
137	468	17.8	0
137	468	17.9	0
137	468	18	0
137	468	18.1	0
137	468	18.2	0
137	468	18.3	0
137	468	18.4	0
137	468	18.5	0
137	468	18.6	0
137	468	18.7	0
137	468	18.8	0
137	468	18.9	0
137	468	19	0
137	468	19.1	0
137	468	19.2	0
137	468	19.3	0
137	468	19.4	0
137	468	19.5	0
137	468	19.6	0
137	468	19.7	0
137	468	19.8	0
137	468	19.9	0
137	468	20	0
137	468	20.1	0
137	468	20.2	0
137	468	20.3	0
137	468	20.4	0
137	468	20.5	0
137	468	20.6	0
137	468	20.7	0
137	468	20.8	0
137	468	20.9	0
137	468	21	0
137	468	21.1	0
137	468	21.2	0
137	468	21.3	0
137	468	21.4	0
137	468	21.5	0
137	468	21.6	0
137	468	21.7	0
137	468	21.8	0
137	468	21.9	0
137	468	22	0
137	468	22.1	0
137	468	22.2	0
137	468	22.3	0
137	468	22.4	0
137	468	22.5	0
137	468	22.6	0
137	468	22.7	0
137	468	22.8	0
137	468	22.9	0
137	468	23	0
137	468	23.1	0
137	468	23.2	0
137	468	23.3	0
137	468	23.4	0
137	468	23.5	0
137	468	23.6	0
137	468	23.7	0
137	468	23.8	0
137	468	23.9	0
137	468	24	0
137	468	24.1	0
137	468	24.2	0
137	468	24.3	0
137	468	24.4	0
137	468	24.5	0
137	468	24.6	0
137	468	24.7	0
137	468	24.8	0
137	468	24.9	0
137	468	25	0
137	614	25.1	8000
137	614	25.2	0
137	614	25.3	0
137	614	25.4	0
137	614	25.5	0
137	614	25.6	0
137	614	25.7	0
137	614	25.8	0
137	614	25.9	0
137	614	26	0
137	614	26.1	0
137	614	26.2	0
137	614	26.3	0
137	614	26.4	0
137	614	26.5	0
137	614	26.6	0
137	614	26.7	0
137	614	26.8	0
137	614	26.9	0
137	614	27	0
137	614	27.1	0
137	614	27.2	0
137	614	27.3	0
137	614	27.4	0
137	614	27.5	0
[...]
63	632	31.2	0
63	632	31.3	0
63	632	31.4	0
63	632	31.5	0
63	632	31.6	0
63	632	31.7	0
63	632	31.8	0
63	632	31.9	0
63	632	32	0
63	632	32.1	0
63	632	32.2	0
63	632	32.3	0
63	632	32.4	0
63	632	32.5	0
63	632	32.6	0
63	632	32.7	0
63	632	32.8	0
63	632	32.9	0
63	632	33	0
63	632	33.1	0
63	632	33.2	0
63	632	33.3	0
63	632	33.4	0
63	632	33.5	0
63	632	33.6	0
63	632	33.7	0
63	632	33.8	0
63	632	33.9	0
63	632	34	0
63	632	34.1	0
63	632	34.2	0
63	632	34.3	0
63	632	34.4	0
63	632	34.5	0
63	632	34.6	0
63	632	34.7	0
63	632	34.8	0
63	632	34.9	0
63	632	35	0
63	806	35.1	8000
63	806	35.2	0
63	806	35.3	0
63	806	35.4	0
63	806	35.5	0
63	806	35.6	0
63	806	35.7	0
63	806	35.8	0
63	806	35.9	0
63	806	36	0
63	806	36.1	0
63	806	36.2	0
63	806	36.3	0
63	806	36.4	0
63	806	36.5	0
63	806	36.6	0
63	806	36.7	0
63	806	36.8	0
63	806	36.9	0
63	806	37	0
63	806	37.1	0
63	806	37.2	0
63	806	37.3	0
63	806	37.4	0
63	806	37.5	0
63	806	37.6	0
63	806	37.7	0
63	806	37.8	0
63	806	37.9	0
63	806	38	0
63	806	38.1	0
63	806	38.2	0
63	806	38.3	0
63	806	38.4	0
63	806	38.5	0
63	806	38.6	0
63	806	38.7	0
63	806	38.8	0
63	806	38.9	0
63	806	39	0
63	806	39.1	0
63	806	39.2	0
63	806	39.3	0
63	806	39.4	0
63	806	39.5	0
63	806	39.6	0
63	806	39.7	0
63	806	39.8	0
63	806	39.9	0
63	806	40	0
63	806	40.1	0
63	806	40.2	0
63	806	40.3	0
63	806	40.4	0
63	806	40.5	0
63	806	40.6	0
63	806	40.7	0
63	806	40.8	0
63	806	40.9	0
63	806	41	0
63	806	41.1	0
63	806	41.2	0
63	806	41.3	0
63	806	41.4	0
63	806	41.5	0
63	806	41.6	0
63	806	41.7	0
63	806	41.8	0
63	806	41.9	0
63	806	42	0
63	806	42.1	0
63	806	42.2	0
63	806	42.3	0
63	806	42.4	0
63	806	42.5	0
63	806	42.6	0
63	806	42.7	0
63	806	42.8	0
63	806	42.9	0
63	806	43	0
63	806	43.1	0
63	806	43.2	0
63	806	43.3	0
63	806	43.4	0
63	806	43.5	0
63	806	43.6	0
63	806	43.7	0
63	806	43.8	0
63	806	43.9	0
63	806	44	0
63	806	44.1	0
63	806	44.2	0
63	806	44.3	0
63	806	44.4	0
63	806	44.5	0
63	806	44.6	0
63	806	44.7	0
63	806	44.8	0
63	806	44.9	0
63	806	45	0
63	957	45.1	8000
63	957	45.2	0
63	957	45.3	0
63	957	45.4	0
63	957	45.5	0
63	957	45.6	0
63	957	45.7	0
63	957	45.8	0
63	957	45.9	0
63	957	46	0
63	957	46.1	0
63	957	46.2	0
63	957	46.3	0
63	957	46.4	0
63	957	46.5	0
63	957	46.6	0
63	957	46.7	0
63	957	46.8	0
63	957	46.9	0
63	957	47	0
63	957	47.1	0
63	957	47.2	0
63	957	47.3	0
63	957	47.4	0
63	957	47.5	0
63	957	47.6	0
63	957	47.7	0
63	957	47.8	0
63	957	47.9	0
63	957	48	0
63	957	48.1	0
63	957	48.2	0
63	957	48.3	0
63	957	48.4	0
63	957	48.5	0
63	957	48.6	0
63	957	48.7	0
63	957	48.8	0
63	957	48.9	0
63	957	49	0
63	957	49.1	0
63	957	49.2	0
63	957	49.3	0
63	957	49.4	0
63	957	49.5	0
63	957	49.6	0
63	957	49.7	0
63	957	49.8	0
63	957	49.9	0
63	957	50	0
63	957	50.1	0
63	957	50.2	0
63	957	50.3	0
63	957	50.4	0
63	957	50.5	0
63	957	50.6	0
63	957	50.7	0
63	957	50.8	0
63	957	50.9	0
63	957	51	0
63	957	51.1	0
63	957	51.2	0
63	957	51.3	0
63	957	51.4	0
63	957	51.5	0
63	957	51.6	0
63	957	51.7	0
63	957	51.8	0
63	957	51.9	0
63	957	52	0
63	957	52.1	0
63	957	52.2	0
63	957	52.3	0
63	957	52.4	0
63	957	52.5	0
63	957	52.6	0
63	957	52.7	0
63	957	52.8	0
63	957	52.9	0
63	957	53	0
63	957	53.1	0
63	957	53.2	0
63	957	53.3	0
63	957	53.4	0
63	957	53.5	0
63	957	53.6	0
63	957	53.7	0
63	957	53.8	0
63	957	53.9	0
63	957	54	0
63	957	54.1	0
63	957	54.2	0
63	957	54.3	0
63	957	54.4	0
63	957	54.5	0
63	957	54.6	0
63	957	54.7	0
63	957	54.8	0
63	957	54.9	0
63	957	55	0
63	1114	55.1	8000
63	1114	55.2	0
63	1114	55.3	0
63	1114	55.4	0
63	1114	55.5	0
63	1114	55.6	0
63	1114	55.7	0
63	1114	55.8	0
63	1114	55.9	0
63	1114	56	0
63	1114	56.1	0
63	1114	56.2	0
63	1114	56.3	0
63	1114	56.4	0
63	1114	56.5	0
63	1114	56.6	0
63	1114	56.7	0
63	1114	56.8	0
63	1114	56.9	0
63	1114	57	0
63	1114	57.1	0
63	1114	57.2	0
63	1114	57.3	0
63	1114	57.4	0
63	1114	57.5	0
63	1114	57.6	0
63	1114	57.7	0
63	1114	57.8	0
63	1114	57.9	0
63	1114	58	0
63	1114	58.1	0
63	1114	58.2	0
63	1114	58.3	0
63	1114	58.4	0
63	1114	58.5	0
63	1114	58.6	0
63	1114	58.7	0
63	1114	58.8	0
63	1114	58.9	0
63	1114	59	0
63	1114	59.1	0
63	1114	59.2	0
63	1114	59.3	0
63	1114	59.4	0
63	1114	59.5	0
63	1114	59.6	0
63	1114	59.7	0
63	1114	59.8	0
63	1114	59.9	0
63	1114	60	0
63	1114	60.1	0
63	1114	60.2	0
63	1114	60.3	0
63	1114	60.4	0
63	1114	60.5	0
63	1114	60.6	0
63	1114	60.7	0
63	1114	60.8	0
63	1114	60.9	0
63	1114	61	0
63	1114	61.1	0
63	1114	61.2	0
63	1114	61.3	0
63	1114	61.4	0
63	1114	61.5	0
63	1114	61.6	0
63	1114	61.7	0
63	1114	61.8	0
63	1114	61.9	0
63	1114	62	0
63	1114	62.1	0
63	1114	62.2	0
63	1114	62.3	0
63	1114	62.4	0
63	1114	62.5	0
63	1114	62.6	0
63	1114	62.7	0
63	1114	62.8	0
63	1114	62.9	0
63	1114	63	0
63	1114	63.1	0
63	1114	63.2	0
63	1114	63.3	0
63	1114	63.4	0
63	1114	63.5	0
63	1114	63.6	0
63	1114	63.7	0
63	1114	63.8	0
63	1114	63.9	0
63	1114	64	0
63	1114	64.1	0
63	1114	64.2	0
63	1114	64.3	0
63	1114	64.4	0
63	1114	64.5	0
63	1114	64.6	0
63	1114	64.7	0
63	1114	64.8	0
63	1114	64.9	0
63	1114	65	0
63	1272	65.1	8000
63	1272	65.2	0
63	1272	65.3	0
63	1272	65.4	0
63	1272	65.5	0
63	1272	65.6	0
63	1272	65.7	0
63	1272	65.8	0
63	1272	65.9	0
63	1272	66	0
63	1272	66.1	0
63	1272	66.2	0
63	1272	66.3	0
63	1272	66.4	0
63	1272	66.5	0
63	1272	66.6	0
63	1272	66.7	0
63	1272	66.8	0
63	1272	66.9	0
63	1272	67	0
63	1272	67.1	0
63	1272	67.2	0
63	1272	67.3	0
63	1272	67.4	0
63	1272	67.5	0
63	1272	67.6	0
63	1272	67.7	0
63	1272	67.8	0
63	1272	67.9	0
63	1272	68	0
63	1272	68.1	0
63	1272	68.2	0
63	1272	68.3	0
63	1272	68.4	0
63	1272	68.5	0
63	1272	68.6	0
63	1272	68.7	0
63	1272	68.8	0
63	1272	68.9	0
63	1272	69	0
63	1272	69.1	0
63	1272	69.2	0
63	1272	69.3	0
63	1272	69.4	0
63	1272	69.5	0
63	1272	69.6	0
63	1272	69.7	0
63	1272	69.8	0
63	1272	69.9	0
63	1272	70	0
63	1272	70.1	0
63	1272	70.2	0
63	1272	70.3	0
63	1272	70.4	0
63	1272	70.5	0
63	1272	70.6	0
63	1272	70.7	0
63	1272	70.8	0
63	1272	70.9	0
63	1272	71	0
63	1272	71.1	0
63	1272	71.2	0
63	1272	71.3	0
63	1272	71.4	0
63	1272	71.5	0
63	1272	71.6	0
63	1272	71.7	0
63	1272	71.8	0
63	1272	71.9	0
63	1272	72	0
63	1272	72.1	0
63	1272	72.2	0
63	1272	72.3	0
63	1272	72.4	0
63	1272	72.5	0
63	1272	72.6	0
63	1272	72.7	0
63	1272	72.8	0
63	1272	72.9	0
63	1272	73	0
63	1272	73.1	0
63	1272	73.2	0
63	1272	73.3	0
63	1272	73.4	0
63	1272	73.5	0
63	1272	73.6	0
63	1272	73.7	0
63	1272	73.8	0
63	1272	73.9	0
63	1272	74	0
63	1272	74.1	0
63	1272	74.2	0
63	1272	74.3	0
63	1272	74.4	0
63	1272	74.5	0
63	1272	74.6	0
63	1272	74.7	0
63	1272	74.8	0
63	1272	74.9	0
63	1272	75	0
63	1272	75.1	0
63	1272	75.2	0
63	1272	75.3	0
63	1272	75.4	0
63	1272	75.5	0
63	1272	75.6	0
63	1272	75.7	0
63	1272	75.8	0
63	1272	75.9	0
63	1272	76	0
63	1272	76.1	0
63	1272	76.2	0
63	1272	76.3	0
63	1272	76.4	0
63	1272	76.5	0
63	1272	76.6	0
63	1272	76.7	0
63	1272	76.8	0
63	1272	76.9	0
63	1272	77	0
63	1272	77.1	0
63	1272	77.2	0
63	1272	77.3	0
63	1272	77.4	0
63	1272	77.5	0
63	1272	77.6	0
63	1272	77.7	0
63	1272	77.8	0
63	1272	77.9	0
63	1272	78	0
63	1272	78.1	0
63	1272	78.2	0
63	1272	78.3	0
63	1272	78.4	0
63	1272	78.5	0
63	1272	78.6	0
63	1272	78.7	0
63	1272	78.8	0
63	1272	78.9	0
63	1272	79	0
63	1272	79.1	0
63	1272	79.2	0
63	1272	79.3	0
63	1272	79.4	0
63	1272	79.5	0
63	1272	79.6	0
63	1272	79.7	0
63	1272	79.8	0
63	1272	79.9	0
63	1272	80	0
64	97	5.000152754492	0.000152754492
64	291	15.000152727389	0.000152727389
64	438	25.000152403806	0.000152403806
64	632	35.000152364983	0.000152364983
64	806	45.000152538087	0.000152538087
64	957	55.000152446446	0.000152446446
64	1114	65.000152582314	0.000152582314
65	99	5.000153065786	158
65	470	25.000152809786	158
65	622	35.000152256652	158
65	796	45.000152341539	158
65	947	55.000152371479	158
65	1104	65.000152503724	158
66	99	5.000153065786	158
66	470	25.000152809786	158
66	622	35.000152256652	158
66	796	45.000152341539	158
66	947	55.000152371479	158
66	1104	65.000152503724	158
67	99	5.000153065786	158
67	470	25.000152809786	158
67	622	35.000152256652	158
67	796	45.000152341539	158
67	947	55.000152371479	158
67	1104	65.000152503724	158
68	99	5.000153065786	158
68	470	25.000152809786	158
68	622	35.000152256652	158
68	796	45.000152341539	158
68	947	55.000152371479	158
68	1104	65.000152503724	158
69	99	5.000153065786	130
69	470	25.000152809786	130
69	622	35.000152256652	130
69	796	45.000152341539	130
69	947	55.000152371479	130
69	1104	65.000152503724	130
70	102	5.000153065786	108
70	473	25.000152809786	108
70	625	35.000152256652	108
70	799	45.000152341539	108
70	950	55.000152371479	108
70	1107	65.000152503724	108
71	102	5.000153065786	1
71	473	25.000152809786	2
71	625	35.000152256652	3
71	799	45.000152341539	4
71	950	55.000152371479	5
71	1107	65.000152503724	6
72	103	5.000153065786	100
72	474	25.000152809786	100
72	626	35.000152256652	100
72	800	45.000152341539	100
72	951	55.000152371479	100
72	1108	65.000152503724	100
73	103	0.1	0
73	103	0.2	0
73	103	0.3	0
73	103	0.4	0
73	103	0.5	0
73	103	0.6	0
73	103	0.7	0
73	103	0.8	0
73	103	0.9	0
73	103	1	0
73	103	1.1	0
73	103	1.2	0
73	103	1.3	0
73	103	1.4	0
73	103	1.5	0
73	103	1.6	0
73	103	1.7	0
73	103	1.8	0
73	103	1.9	0
73	103	2	0
73	103	2.1	0
73	103	2.2	0
73	103	2.3	0
73	103	2.4	0
73	103	2.5	0
73	103	2.6	0
73	103	2.7	0
73	103	2.8	0
73	103	2.9	0
73	103	3	0
73	103	3.1	0
73	103	3.2	0
73	103	3.3	0
73	103	3.4	0
73	103	3.5	0
73	103	3.6	0
73	103	3.7	0
73	103	3.8	0
73	103	3.9	0
73	103	4	0
73	103	4.1	0
73	103	4.2	0
73	103	4.3	0
73	103	4.4	0
73	103	4.5	0
73	103	4.6	0
73	103	4.7	0
73	103	4.8	0
73	103	4.9	0
73	103	5	0
73	474	5.1	8000
73	474	5.2	0
73	474	5.3	0
73	474	5.4	0
73	474	5.5	0
73	474	5.6	0
73	474	5.7	0
73	474	5.8	0
73	474	5.9	0
73	474	6	0
73	474	6.1	0
73	474	6.2	0
73	474	6.3	0
73	474	6.4	0
73	474	6.5	0
73	474	6.6	0
73	474	6.7	0
73	474	6.8	0
73	474	6.9	0
73	474	7	0
73	474	7.1	0
73	474	7.2	0
73	474	7.3	0
73	474	7.4	0
73	474	7.5	0
73	474	7.6	0
73	474	7.7	0
73	474	7.8	0
73	474	7.9	0
73	474	8	0
73	474	8.1	0
73	474	8.2	0
73	474	8.3	0
73	474	8.4	0
73	474	8.5	0
73	474	8.6	0
73	474	8.7	0
73	474	8.8	0
73	474	8.9	0
73	474	9	0
73	474	9.1	0
73	474	9.2	0
73	474	9.3	0
73	474	9.4	0
73	474	9.5	0
73	474	9.6	0
73	474	9.7	0
73	474	9.8	0
73	474	9.9	0
73	474	10	0
73	474	10.1	0
73	474	10.2	0
73	474	10.3	0
73	474	10.4	0
73	474	10.5	0
73	474	10.6	0
73	474	10.7	0
73	474	10.8	0
73	474	10.9	0
73	474	11	0
73	474	11.1	0
73	474	11.2	0
73	474	11.3	0
73	474	11.4	0
73	474	11.5	0
73	474	11.6	0
73	474	11.7	0
73	474	11.8	0
73	474	11.9	0
73	474	12	0
73	474	12.1	0
73	474	12.2	0
73	474	12.3	0
73	474	12.4	0
73	474	12.5	0
73	474	12.6	0
73	474	12.7	0
73	474	12.8	0
73	474	12.9	0
73	474	13	0
73	474	13.1	0
73	474	13.2	0
73	474	13.3	0
73	474	13.4	0
73	474	13.5	0
73	474	13.6	0
73	474	13.7	0
73	474	13.8	0
73	474	13.9	0
73	474	14	0
73	474	14.1	0
73	474	14.2	0
73	474	14.3	0
73	474	14.4	0
73	474	14.5	0
73	474	14.6	0
73	474	14.7	0
73	474	14.8	0
73	474	14.9	0
73	474	15	0
73	474	15.1	0
73	474	15.2	0
73	474	15.3	0
73	474	15.4	0
73	474	15.5	0
73	474	15.6	0
73	474	15.7	0
73	474	15.8	0
73	474	15.9	0
73	474	16	0
73	474	16.1	0
73	474	16.2	0
73	474	16.3	0
73	474	16.4	0
73	474	16.5	0
73	474	16.6	0
73	474	16.7	0
73	474	16.8	0
73	474	16.9	0
73	474	17	0
73	474	17.1	0
73	474	17.2	0
73	474	17.3	0
73	474	17.4	0
73	474	17.5	0
73	474	17.6	0
73	474	17.7	0
73	474	17.8	0
73	474	17.9	0
73	474	18	0
73	474	18.1	0
73	474	18.2	0
73	474	18.3	0
73	474	18.4	0
73	474	18.5	0
73	474	18.6	0
73	474	18.7	0
73	474	18.8	0
73	474	18.9	0
73	474	19	0
73	474	19.1	0
73	474	19.2	0
73	474	19.3	0
73	474	19.4	0
73	474	19.5	0
73	474	19.6	0
73	474	19.7	0
73	474	19.8	0
73	474	19.9	0
73	474	20	0
73	474	20.1	0
73	474	20.2	0
73	474	20.3	0
73	474	20.4	0
73	474	20.5	0
73	474	20.6	0
73	474	20.7	0
73	474	20.8	0
73	474	20.9	0
73	474	21	0
73	474	21.1	0
73	474	21.2	0
73	474	21.3	0
73	474	21.4	0
73	474	21.5	0
73	474	21.6	0
73	474	21.7	0
73	474	21.8	0
73	474	21.9	0
73	474	22	0
73	474	22.1	0
73	474	22.2	0
73	474	22.3	0
73	474	22.4	0
73	474	22.5	0
73	474	22.6	0
73	474	22.7	0
73	474	22.8	0
73	474	22.9	0
73	474	23	0
73	474	23.1	0
73	474	23.2	0
73	474	23.3	0
73	474	23.4	0
73	474	23.5	0
73	474	23.6	0
73	474	23.7	0
73	474	23.8	0
73	474	23.9	0
73	474	24	0
73	474	24.1	0
73	474	24.2	0
73	474	24.3	0
73	474	24.4	0
73	474	24.5	0
73	474	24.6	0
73	474	24.7	0
73	474	24.8	0
73	474	24.9	0
73	474	25	0
73	626	25.1	8000
73	626	25.2	0
73	626	25.3	0
73	626	25.4	0
73	626	25.5	0
73	626	25.6	0
73	626	25.7	0
73	626	25.8	0
73	626	25.9	0
73	626	26	0
73	626	26.1	0
73	626	26.2	0
73	626	26.3	0
73	626	26.4	0
73	626	26.5	0
73	626	26.6	0
73	626	26.7	0
73	626	26.8	0
73	626	26.9	0
73	626	27	0
73	626	27.1	0
73	626	27.2	0
73	626	27.3	0
73	626	27.4	0
73	626	27.5	0
73	626	27.6	0
73	626	27.7	0
73	626	27.8	0
73	626	27.9	0
73	626	28	0
73	626	28.1	0
73	626	28.2	0
73	626	28.3	0
73	626	28.4	0
73	626	28.5	0
73	626	28.6	0
73	626	28.7	0
73	626	28.8	0
73	626	28.9	0
73	626	29	0
73	626	29.1	0
73	626	29.2	0
73	626	29.3	0
73	626	29.4	0
73	626	29.5	0
73	626	29.6	0
73	626	29.7	0
73	626	29.8	0
73	626	29.9	0
73	626	30	0
73	626	30.1	0
73	626	30.2	0
73	626	30.3	0
73	626	30.4	0
73	626	30.5	0
73	626	30.6	0
73	626	30.7	0
73	626	30.8	0
73	626	30.9	0
73	626	31	0
73	626	31.1	0
73	626	31.2	0
73	626	31.3	0
73	626	31.4	0
73	626	31.5	0
73	626	31.6	0
73	626	31.7	0
73	626	31.8	0
73	626	31.9	0
73	626	32	0
73	626	32.1	0
73	626	32.2	0
73	626	32.3	0
73	626	32.4	0
73	626	32.5	0
73	626	32.6	0
73	626	32.7	0
73	626	32.8	0
73	626	32.9	0
73	626	33	0
73	626	33.1	0
73	626	33.2	0
73	626	33.3	0
73	626	33.4	0
73	626	33.5	0
73	626	33.6	0
73	626	33.7	0
73	626	33.8	0
73	626	33.9	0
73	626	34	0
73	626	34.1	0
73	626	34.2	0
73	626	34.3	0
73	626	34.4	0
73	626	34.5	0
73	626	34.6	0
73	626	34.7	0
73	626	34.8	0
73	626	34.9	0
73	626	35	0
73	800	35.1	8000
73	800	35.2	0
73	800	35.3	0
73	800	35.4	0
73	800	35.5	0
73	800	35.6	0
73	800	35.7	0
73	800	35.8	0
73	800	35.9	0
73	800	36	0
73	800	36.1	0
73	800	36.2	0
73	800	36.3	0
73	800	36.4	0
73	800	36.5	0
73	800	36.6	0
73	800	36.7	0
73	800	36.8	0
73	800	36.9	0
73	800	37	0
73	800	37.1	0
73	800	37.2	0
73	800	37.3	0
73	800	37.4	0
73	800	37.5	0
73	800	37.6	0
73	800	37.7	0
73	800	37.8	0
73	800	37.9	0
73	800	38	0
73	800	38.1	0
73	800	38.2	0
73	800	38.3	0
73	800	38.4	0
73	800	38.5	0
73	800	38.6	0
73	800	38.7	0
73	800	38.8	0
73	800	38.9	0
73	800	39	0
73	800	39.1	0
73	800	39.2	0
73	800	39.3	0
73	800	39.4	0
73	800	39.5	0
73	800	39.6	0
73	800	39.7	0
73	800	39.8	0
73	800	39.9	0
73	800	40	0
73	800	40.1	0
73	800	40.2	0
73	800	40.3	0
73	800	40.4	0
73	800	40.5	0
73	800	40.6	0
73	800	40.7	0
73	800	40.8	0
73	800	40.9	0
73	800	41	0
73	800	41.1	0
73	800	41.2	0
73	800	41.3	0
73	800	41.4	0
73	800	41.5	0
73	800	41.6	0
73	800	41.7	0
73	800	41.8	0
73	800	41.9	0
73	800	42	0
73	800	42.1	0
73	800	42.2	0
73	800	42.3	0
73	800	42.4	0
73	800	42.5	0
73	800	42.6	0
73	800	42.7	0
73	800	42.8	0
73	800	42.9	0
73	800	43	0
73	800	43.1	0
73	800	43.2	0
73	800	43.3	0
73	800	43.4	0
73	800	43.5	0
73	800	43.6	0
73	800	43.7	0
73	800	43.8	0
73	800	43.9	0
73	800	44	0
73	800	44.1	0
73	800	44.2	0
73	800	44.3	0
73	800	44.4	0
73	800	44.5	0
73	800	44.6	0
73	800	44.7	0
73	800	44.8	0
73	800	44.9	0
73	800	45	0
73	951	45.1	8000
73	951	45.2	0
73	951	45.3	0
73	951	45.4	0
73	951	45.5	0
73	951	45.6	0
73	951	45.7	0
73	951	45.8	0
73	951	45.9	0
73	951	46	0
73	951	46.1	0
73	951	46.2	0
73	951	46.3	0
73	951	46.4	0
73	951	46.5	0
73	951	46.6	0
73	951	46.7	0
73	951	46.8	0
73	951	46.9	0
73	951	47	0
73	951	47.1	0
73	951	47.2	0
73	951	47.3	0
73	951	47.4	0
73	951	47.5	0
73	951	47.6	0
73	951	47.7	0
73	951	47.8	0
73	951	47.9	0
73	951	48	0
73	951	48.1	0
73	951	48.2	0
73	951	48.3	0
73	951	48.4	0
73	951	48.5	0
73	951	48.6	0
73	951	48.7	0
73	951	48.8	0
73	951	48.9	0
73	951	49	0
73	951	49.1	0
73	951	49.2	0
73	951	49.3	0
73	951	49.4	0
73	951	49.5	0
73	951	49.6	0
73	951	49.7	0
73	951	49.8	0
73	951	49.9	0
73	951	50	0
73	951	50.1	0
73	951	50.2	0
73	951	50.3	0
73	951	50.4	0
73	951	50.5	0
73	951	50.6	0
73	951	50.7	0
73	951	50.8	0
73	951	50.9	0
73	951	51	0
73	951	51.1	0
73	951	51.2	0
73	951	51.3	0
73	951	51.4	0
73	951	51.5	0
73	951	51.6	0
73	951	51.7	0
73	951	51.8	0
73	951	51.9	0
73	951	52	0
73	951	52.1	0
73	951	52.2	0
73	951	52.3	0
73	951	52.4	0
73	951	52.5	0
73	951	52.6	0
73	951	52.7	0
73	951	52.8	0
73	951	52.9	0
73	951	53	0
73	951	53.1	0
73	951	53.2	0
73	951	53.3	0
73	951	53.4	0
73	951	53.5	0
73	951	53.6	0
73	951	53.7	0
73	951	53.8	0
73	951	53.9	0
73	951	54	0
73	951	54.1	0
73	951	54.2	0
73	951	54.3	0
73	951	54.4	0
73	951	54.5	0
73	951	54.6	0
73	951	54.7	0
73	951	54.8	0
73	951	54.9	0
73	951	55	0
73	1108	55.1	8000
73	1108	55.2	0
73	1108	55.3	0
73	1108	55.4	0
73	1108	55.5	0
73	1108	55.6	0
73	1108	55.7	0
73	1108	55.8	0
73	1108	55.9	0
73	1108	56	0
73	1108	56.1	0
73	1108	56.2	0
73	1108	56.3	0
73	1108	56.4	0
73	1108	56.5	0
73	1108	56.6	0
73	1108	56.7	0
73	1108	56.8	0
73	1108	56.9	0
73	1108	57	0
73	1108	57.1	0
73	1108	57.2	0
73	1108	57.3	0
73	1108	57.4	0
73	1108	57.5	0
73	1108	57.6	0
73	1108	57.7	0
73	1108	57.8	0
73	1108	57.9	0
73	1108	58	0
73	1108	58.1	0
73	1108	58.2	0
73	1108	58.3	0
73	1108	58.4	0
73	1108	58.5	0
73	1108	58.6	0
73	1108	58.7	0
73	1108	58.8	0
73	1108	58.9	0
73	1108	59	0
73	1108	59.1	0
73	1108	59.2	0
73	1108	59.3	0
73	1108	59.4	0
73	1108	59.5	0
73	1108	59.6	0
73	1108	59.7	0
73	1108	59.8	0
73	1108	59.9	0
73	1108	60	0
73	1108	60.1	0
73	1108	60.2	0
73	1108	60.3	0
73	1108	60.4	0
73	1108	60.5	0
73	1108	60.6	0
73	1108	60.7	0
73	1108	60.8	0
73	1108	60.9	0
73	1108	61	0
73	1108	61.1	0
73	1108	61.2	0
73	1108	61.3	0
73	1108	61.4	0
73	1108	61.5	0
73	1108	61.6	0
73	1108	61.7	0
73	1108	61.8	0
73	1108	61.9	0
73	1108	62	0
73	1108	62.1	0
73	1108	62.2	0
73	1108	62.3	0
73	1108	62.4	0
73	1108	62.5	0
73	1108	62.6	0
73	1108	62.7	0
73	1108	62.8	0
73	1108	62.9	0
73	1108	63	0
73	1108	63.1	0
73	1108	63.2	0
73	1108	63.3	0
73	1108	63.4	0
73	1108	63.5	0
73	1108	63.6	0
73	1108	63.7	0
73	1108	63.8	0
73	1108	63.9	0
73	1108	64	0
73	1108	64.1	0
73	1108	64.2	0
73	1108	64.3	0
73	1108	64.4	0
73	1108	64.5	0
73	1108	64.6	0
73	1108	64.7	0
73	1108	64.8	0
73	1108	64.9	0
73	1108	65	0
73	1272	65.1	8000
73	1272	65.2	0
73	1272	65.3	0
73	1272	65.4	0
73	1272	65.5	0
73	1272	65.6	0
73	1272	65.7	0
73	1272	65.8	0
73	1272	65.9	0
73	1272	66	0
73	1272	66.1	0
73	1272	66.2	0
73	1272	66.3	0
73	1272	66.4	0
73	1272	66.5	0
73	1272	66.6	0
73	1272	66.7	0
73	1272	66.8	0
73	1272	66.9	0
73	1272	67	0
73	1272	67.1	0
73	1272	67.2	0
73	1272	67.3	0
73	1272	67.4	0
73	1272	67.5	0
73	1272	67.6	0
73	1272	67.7	0
73	1272	67.8	0
73	1272	67.9	0
73	1272	68	0
73	1272	68.1	0
73	1272	68.2	0
73	1272	68.3	0
73	1272	68.4	0
73	1272	68.5	0
73	1272	68.6	0
73	1272	68.7	0
73	1272	68.8	0
73	1272	68.9	0
73	1272	69	0
73	1272	69.1	0
73	1272	69.2	0
73	1272	69.3	0
73	1272	69.4	0
73	1272	69.5	0
73	1272	69.6	0
73	1272	69.7	0
73	1272	69.8	0
73	1272	69.9	0
73	1272	70	0
73	1272	70.1	0
73	1272	70.2	0
73	1272	70.3	0
73	1272	70.4	0
73	1272	70.5	0
73	1272	70.6	0
73	1272	70.7	0
73	1272	70.8	0
73	1272	70.9	0
73	1272	71	0
73	1272	71.1	0
73	1272	71.2	0
73	1272	71.3	0
73	1272	71.4	0
73	1272	71.5	0
73	1272	71.6	0
73	1272	71.7	0
73	1272	71.8	0
73	1272	71.9	0
73	1272	72	0
73	1272	72.1	0
73	1272	72.2	0
73	1272	72.3	0
73	1272	72.4	0
73	1272	72.5	0
73	1272	72.6	0
73	1272	72.7	0
73	1272	72.8	0
73	1272	72.9	0
73	1272	73	0
73	1272	73.1	0
73	1272	73.2	0
73	1272	73.3	0
73	1272	73.4	0
73	1272	73.5	0
73	1272	73.6	0
73	1272	73.7	0
73	1272	73.8	0
73	1272	73.9	0
73	1272	74	0
73	1272	74.1	0
73	1272	74.2	0
73	1272	74.3	0
73	1272	74.4	0
73	1272	74.5	0
73	1272	74.6	0
73	1272	74.7	0
73	1272	74.8	0
73	1272	74.9	0
73	1272	75	0
73	1272	75.1	0
73	1272	75.2	0
73	1272	75.3	0
73	1272	75.4	0
73	1272	75.5	0
73	1272	75.6	0
73	1272	75.7	0
73	1272	75.8	0
73	1272	75.9	0
73	1272	76	0
73	1272	76.1	0
73	1272	76.2	0
73	1272	76.3	0
73	1272	76.4	0
73	1272	76.5	0
73	1272	76.6	0
73	1272	76.7	0
73	1272	76.8	0
73	1272	76.9	0
73	1272	77	0
73	1272	77.1	0
73	1272	77.2	0
73	1272	77.3	0
73	1272	77.4	0
73	1272	77.5	0
73	1272	77.6	0
73	1272	77.7	0
73	1272	77.8	0
73	1272	77.9	0
73	1272	78	0
73	1272	78.1	0
73	1272	78.2	0
73	1272	78.3	0
73	1272	78.4	0
73	1272	78.5	0
73	1272	78.6	0
73	1272	78.7	0
73	1272	78.8	0
73	1272	78.9	0
73	1272	79	0
73	1272	79.1	0
73	1272	79.2	0
73	1272	79.3	0
73	1272	79.4	0
73	1272	79.5	0
73	1272	79.6	0
73	1272	79.7	0
73	1272	79.8	0
73	1272	79.9	0
73	1272	80	0
74	103	5.000153065786	0.000153065786
74	474	25.000152809786	0.000152809786
74	626	35.000152256652	0.000152256652
74	800	45.000152341539	0.000152341539
74	951	55.000152371479	0.000152371479
74	1108	65.000152503724	0.000152503724

